1

   Abaqus 6.12-1                                  Date 04-Nov-2016   Time 16:55:01
   For use at  under license from Dassault Systemes or its subsidiary.



                         The Abaqus Software is a product of:

                           Dassault Systemes Simulia Corp.
                                 Rising Sun Mills
                                 166 Valley Street
                           Providence, RI 02909-2499, USA
 


                   Available for internal use at . 
                   The Abaqus Online Support System is accessible
                   through the "My Support" section of the SIMULIA
                   Home Page at http://www.simulia.com.

                   Support policies for academic licenses are described
                   on the SIMULIA web site at
                   http://www.simulia.com/academics/academic_support.html.
 
                          On machine w4069.see.ed.ac.uk 
                          you are authorized to run
                          Abaqus/Standard until 30-Jun-2017

                          Your site id is: 200000000040703 


 
                    For assistance or any other information you may
                    obtain contact information for your local office
                    from the world wide web at:

                      http://www.simulia.com/about/locations.html

 
                * * * * * * * * * * * * * * * * * * * * * * * * * * * * * * 
                *                                                         * 
                *                   *****************                     * 
                *                   *  N O T I C E  *                     * 
                *                   *****************                     * 
                *                                                         * 
                *                                                         * 
                *                    Abaqus 6.12-1                        * 
                *                                                         * 
                *          BUILD ID: 2012_03_13-20.21.46 119612           * 
                *                                                         * 
                *                                                         * 
                *  Please make sure you are using release 6.12 manuals    * 
                *  plus the notes accompanying this release.              * 
                *                                                         * 
                *                                                         * 
                *                                                         * 
                *                                                         * 
                *                                                         * 
                *   This program may not be used for commercial purposes  * 
                *           without payment of a commercial fee.          * 
                *                                                         * 
                * * * * * * * * * * * * * * * * * * * * * * * * * * * * * * 


 



     PROCESSING PART, INSTANCE, AND ASSEMBLY INFORMATION
   *******************************************************


     END PROCESSING PART, INSTANCE, AND ASSEMBLY INFORMATION
   ***********************************************************

1

   Abaqus 6.12-1                                  Date 04-Nov-2016   Time 16:55:01
   For use at  under license from Dassault Systemes or its subsidiary.

                                                                                     

                                             A B A Q U S   I N P U T   E C H O


                        5   10   15   20   25   30   35   40   45   50   55   60   65   70   75   80
                    --------------------------------------------------------------------------------
                    *HEADING
                    5m LONG BY 1m DEEP BY 0.2m THICK SIMPLY SUPPORTED BEAM WITH 100 KN/M DISTRIBUTED LOAD, 10X10 CPS8 MESH, E=200 GPa, V = 0.3      
                    ******************************  
                    *NODE   
     LINE     5     ** DEFINE LOCATION OF CORNER NODES      
                    1, 0.0, 0.0     
                    21, 5.0, 0.0    
                    2001, 0.0, 1.0  
                    2021, 5.0, 1.0  
     LINE    10     ******************************  
                    *NGEN, NSET=BOTTOM      
                    ** GENERATE ELEMENTS ALONG BOTTOM AND ADD NODES TO SET "BOTTOM" 
                    1, 21, 1
                    ******************************  
     LINE    15     ** CREATE NODES ALONG TOP AND ADD NODES TO SET "TOP"    
                    *NGEN, NSET=TOP 
                    2001, 2021, 1   
                    ******************************  
                    ** CREATE NODES BETWEEN "LEFT" AND "RIGHT", 20 NODES BETWEEN ENDS WITH NODE NUMBERING STEP OF 1 
     LINE    20     *NFILL  
                    BOTTOM, TOP, 20, 100    
                    ******************************  
                    **DEFINE THE FIRST "MASTER ELEMENT" NUMBER 1 AS A CPS4I CONSISTING OF NODES 1,2,102 AND 101     
                    *ELEMENT, TYPE=CPS8     
     LINE    25     1, 1, 3, 203, 201, 2, 103, 202, 101     
                    ******************************  
                    ** GENERATE THE REST OF THE ELEMENTS BY COPYING ELEMENT 1, 10 ELEMENTS IN X, 10 ELEMENTS IN Y, NODE NUMBER INCREMENT OF 2 IN X, NODE NUMBER INCREMENT OF 200 IN Y, ELEMENT NUMBER INCREMENT OF 10 FROM ROW TO ROW, ASSIGN ELEMENTS TO SET "EALL"
                    *ELGEN, ELSET=EALL      
                    1,10,2,1,10,200,10      
     LINE    30     ******************************  
                    ** DEFINE MATERIAL CALLED "STEEL"       
                    *MATERIAL,NAME=STEEL    
                    ******************************  
                    ** DEFINE ELASTIC MATERIAL PROPERTIES, E = 200 GPa AND POISSON'S RATIO 0.3      
     LINE    35     *ELASTIC
                    200E9, 0.3      
                    ******************************  
                    ** CREATE SECTION FROM MATERIAL "STEEL" AND ASSIGN IT TO ELEMENT SET "EALL", THICKNESS IS 0.1M  
                    *SOLID SECTION, MATERIAL=STEEL, ELSET=EALL      
     LINE    40     0.2     
                    ******************************  
                    **ASSIGN ELEMENTS IN TOP ROW TO ELSET "TOP"     
                    *ELSET, ELSET=TOP, GENERATE     
                    81, 100, 1      
     LINE    45     ******************************  
                    **CREATE NODE SET AT L/5 FOR PLOTS      
                    *NSET, NSET=CUT, GENERATE       
                    5, 2005, 100    
                    ******************************  
     LINE    50     **ASK FOR HISTORY AND MODEL DATA TO BE INCLUDED IN RESULTS FILE 
                    *PREPRINT, ECHO=YES, MODEL=YES, HISTORY=YES     
                    ******************************  
                    ** BEGIN LINEAR STEP    
                    *STEP, PERTURBATION     
     LINE    55     ******************************  
                    ** DEFINE STEP AS STATIC
                    *STATIC 
                    ******************************  
                    ** DEFINE FIXED BOUNDARY AT NODE 1 LOCKED IN X AND Y DIRECTION AND AT NODE 21 LOCKED IN Y DIRECTION     
     LINE    60     *BOUNDARY       
                    1, 1, 2 
                    21, 2, 2
                    ******************************  
                    ** DEFINE CONCENTRATED LOAD OF -0.5N IN Y DIRECTION ON EACH END CORNER NODE     
     LINE    65     *DLOAD  
                    TOP, P3, 500E3  
                    ******************************  
                    ** ASK ABAQUS TO PRINT COORDINATE, STRESS AND STRAIN FOR EACH ELEMENT (AT INTEGRATION POINTS INSIDE CELLS)      
                    *EL PRINT       
     LINE    70     COORD   
                    S       
                    E       
                    ******************************  
                    ** ASK ABAQUS TO PRINT STRESS VALUES AT NODES   
     LINE    75     *EL PRINT, POSITION=AVERAGED AT NODES   
                    S       
                    ******************************  
                    ** ASK ABAQUS TO PRINT FORCES AND DISPLACEMENTS AT NODES
                    *NODE PRINT     
     LINE    80     U       
                    RF      
                    ******************************  
                    ** END THE STEP 
                    *END STEP       
                    --------------------------------------------------------------------------------
                        5   10   15   20   25   30   35   40   45   50   55   60   65   70   75   80
                    --------------------------------------------------------------------------------



     OPTIONS BEING PROCESSED
   ***************************


  *HEADING
          5m LONG BY 1m DEEP BY 0.2m THICK SIMPLY SUPPORTED BEAM WITH 100 KN/M DISTRIBUTED LOAD, 10X10 CPS8 MESH, E=200 GPa, V = 0.3                                                                                                                                      
  *NODE
  *NGEN, NSET=BOTTOM
  *NGEN, NSET=TOP
  *NFILL

     THE FOLLOWING NODES WILL BE USED IN THE NFILL GENERATION


          BOUND  1              1         2         3         4         5         6         7         8         9        10
                               11        12        13        14        15        16        17        18        19        20
                               21

          BOUND  2           2001      2002      2003      2004      2005      2006      2007      2008      2009      2010
                             2011      2012      2013      2014      2015      2016      2017      2018      2019      2020
                             2021
  *ELEMENT, TYPE=CPS8
  *ELGEN, ELSET=EALL
  *ELSET, ELSET=TOP, GENERATE
  *NSET, NSET=CUT, GENERATE
  *MATERIAL,NAME=STEEL
  *ELASTIC
  *SOLID SECTION, MATERIAL=STEEL, ELSET=EALL
  *BOUNDARY
  *SOLID SECTION, MATERIAL=STEEL, ELSET=EALL
  *STEP, PERTURBATION
  *STEP, PERTURBATION
  *STEP, PERTURBATION
  *STATIC
  *BOUNDARY
  *DLOAD
  *EL PRINT
  *EL PRINT, POSITION=AVERAGED AT NODES
  *NODE PRINT
  *END STEP
  *STEP, PERTURBATION
  *STATIC
  *BOUNDARY
  *END STEP
1

   Abaqus 6.12-1                                  Date 04-Nov-2016   Time 16:55:01
   For use at  under license from Dassault Systemes or its subsidiary.

     5m LONG BY 1m DEEP BY 0.2m THICK SIMPLY SUPPORTED BEAM WITH 100 KN/M DISTRIBUTED


                              E L E M E N T   D E F I N I T I O N S

       NUMBER   TYPE    PROPERTY    NODES FORMING ELEMENT
                        REFERENCE

          1   CPS8          1          1         3       203       201         2       103       202       101
          2   CPS8          1          3         5       205       203         4       105       204       103
          3   CPS8          1          5         7       207       205         6       107       206       105
          4   CPS8          1          7         9       209       207         8       109       208       107
          5   CPS8          1          9        11       211       209        10       111       210       109
          6   CPS8          1         11        13       213       211        12       113       212       111
          7   CPS8          1         13        15       215       213        14       115       214       113
          8   CPS8          1         15        17       217       215        16       117       216       115
          9   CPS8          1         17        19       219       217        18       119       218       117
         10   CPS8          1         19        21       221       219        20       121       220       119
         11   CPS8          1        201       203       403       401       202       303       402       301
         12   CPS8          1        203       205       405       403       204       305       404       303
         13   CPS8          1        205       207       407       405       206       307       406       305
         14   CPS8          1        207       209       409       407       208       309       408       307
         15   CPS8          1        209       211       411       409       210       311       410       309
         16   CPS8          1        211       213       413       411       212       313       412       311
         17   CPS8          1        213       215       415       413       214       315       414       313
         18   CPS8          1        215       217       417       415       216       317       416       315
         19   CPS8          1        217       219       419       417       218       319       418       317
         20   CPS8          1        219       221       421       419       220       321       420       319
         21   CPS8          1        401       403       603       601       402       503       602       501
         22   CPS8          1        403       405       605       603       404       505       604       503
         23   CPS8          1        405       407       607       605       406       507       606       505
         24   CPS8          1        407       409       609       607       408       509       608       507
         25   CPS8          1        409       411       611       609       410       511       610       509
         26   CPS8          1        411       413       613       611       412       513       612       511
         27   CPS8          1        413       415       615       613       414       515       614       513
         28   CPS8          1        415       417       617       615       416       517       616       515
         29   CPS8          1        417       419       619       617       418       519       618       517
         30   CPS8          1        419       421       621       619       420       521       620       519
         31   CPS8          1        601       603       803       801       602       703       802       701
         32   CPS8          1        603       605       805       803       604       705       804       703
         33   CPS8          1        605       607       807       805       606       707       806       705
         34   CPS8          1        607       609       809       807       608       709       808       707
         35   CPS8          1        609       611       811       809       610       711       810       709
         36   CPS8          1        611       613       813       811       612       713       812       711
         37   CPS8          1        613       615       815       813       614       715       814       713
         38   CPS8          1        615       617       817       815       616       717       816       715
         39   CPS8          1        617       619       819       817       618       719       818       717
         40   CPS8          1        619       621       821       819       620       721       820       719
         41   CPS8          1        801       803      1003      1001       802       903      1002       901
         42   CPS8          1        803       805      1005      1003       804       905      1004       903
         43   CPS8          1        805       807      1007      1005       806       907      1006       905
         44   CPS8          1        807       809      1009      1007       808       909      1008       907
         45   CPS8          1        809       811      1011      1009       810       911      1010       909
         46   CPS8          1        811       813      1013      1011       812       913      1012       911
         47   CPS8          1        813       815      1015      1013       814       915      1014       913
         48   CPS8          1        815       817      1017      1015       816       917      1016       915
         49   CPS8          1        817       819      1019      1017       818       919      1018       917
         50   CPS8          1        819       821      1021      1019       820       921      1020       919
         51   CPS8          1       1001      1003      1203      1201      1002      1103      1202      1101
         52   CPS8          1       1003      1005      1205      1203      1004      1105      1204      1103
         53   CPS8          1       1005      1007      1207      1205      1006      1107      1206      1105
         54   CPS8          1       1007      1009      1209      1207      1008      1109      1208      1107
         55   CPS8          1       1009      1011      1211      1209      1010      1111      1210      1109
         56   CPS8          1       1011      1013      1213      1211      1012      1113      1212      1111
         57   CPS8          1       1013      1015      1215      1213      1014      1115      1214      1113
         58   CPS8          1       1015      1017      1217      1215      1016      1117      1216      1115
         59   CPS8          1       1017      1019      1219      1217      1018      1119      1218      1117
         60   CPS8          1       1019      1021      1221      1219      1020      1121      1220      1119
         61   CPS8          1       1201      1203      1403      1401      1202      1303      1402      1301
         62   CPS8          1       1203      1205      1405      1403      1204      1305      1404      1303
         63   CPS8          1       1205      1207      1407      1405      1206      1307      1406      1305
         64   CPS8          1       1207      1209      1409      1407      1208      1309      1408      1307
         65   CPS8          1       1209      1211      1411      1409      1210      1311      1410      1309
         66   CPS8          1       1211      1213      1413      1411      1212      1313      1412      1311
         67   CPS8          1       1213      1215      1415      1413      1214      1315      1414      1313
         68   CPS8          1       1215      1217      1417      1415      1216      1317      1416      1315
         69   CPS8          1       1217      1219      1419      1417      1218      1319      1418      1317
         70   CPS8          1       1219      1221      1421      1419      1220      1321      1420      1319
         71   CPS8          1       1401      1403      1603      1601      1402      1503      1602      1501
         72   CPS8          1       1403      1405      1605      1603      1404      1505      1604      1503
         73   CPS8          1       1405      1407      1607      1605      1406      1507      1606      1505
         74   CPS8          1       1407      1409      1609      1607      1408      1509      1608      1507
         75   CPS8          1       1409      1411      1611      1609      1410      1511      1610      1509
         76   CPS8          1       1411      1413      1613      1611      1412      1513      1612      1511
         77   CPS8          1       1413      1415      1615      1613      1414      1515      1614      1513
         78   CPS8          1       1415      1417      1617      1615      1416      1517      1616      1515
         79   CPS8          1       1417      1419      1619      1617      1418      1519      1618      1517
         80   CPS8          1       1419      1421      1621      1619      1420      1521      1620      1519
         81   CPS8          1       1601      1603      1803      1801      1602      1703      1802      1701
         82   CPS8          1       1603      1605      1805      1803      1604      1705      1804      1703
         83   CPS8          1       1605      1607      1807      1805      1606      1707      1806      1705
         84   CPS8          1       1607      1609      1809      1807      1608      1709      1808      1707
         85   CPS8          1       1609      1611      1811      1809      1610      1711      1810      1709
         86   CPS8          1       1611      1613      1813      1811      1612      1713      1812      1711
         87   CPS8          1       1613      1615      1815      1813      1614      1715      1814      1713
         88   CPS8          1       1615      1617      1817      1815      1616      1717      1816      1715
         89   CPS8          1       1617      1619      1819      1817      1618      1719      1818      1717
         90   CPS8          1       1619      1621      1821      1819      1620      1721      1820      1719
         91   CPS8          1       1801      1803      2003      2001      1802      1903      2002      1901
         92   CPS8          1       1803      1805      2005      2003      1804      1905      2004      1903
         93   CPS8          1       1805      1807      2007      2005      1806      1907      2006      1905
         94   CPS8          1       1807      1809      2009      2007      1808      1909      2008      1907
         95   CPS8          1       1809      1811      2011      2009      1810      1911      2010      1909
         96   CPS8          1       1811      1813      2013      2011      1812      1913      2012      1911
         97   CPS8          1       1813      1815      2015      2013      1814      1915      2014      1913
         98   CPS8          1       1815      1817      2017      2015      1816      1917      2016      1915
         99   CPS8          1       1817      1819      2019      2017      1818      1919      2018      1917
        100   CPS8          1       1819      1821      2021      2019      1820      1921      2020      1919





                                S O L I D   S E C T I O N (S)




  PROPERTY NUMBER         1

     MATERIAL NAME                     STEEL                                                                           
     ATTRIBUTES                         0.20000       0.0000       0.0000    

     HOURGLASS CONTROL STIFFNESS    3.84615E+08

     (USED WITH LOWER ORDER REDUCED INTEGRATED SOLID ELEMENTS LIKE CPS4R,CPE4RH,C3D8R)





                         P H Y S I C A L   C O N S T A N T S






                         M A T E R I A L   D E S C R I P T I O N




  MATERIAL NAME: STEEL                                                                           


     ELASTIC         YOUNG'S    POISSON'S
                     MODULUS      RATIO

                    2.00000E+11 0.30000    





                                 E L E M E N T   S E T S


  SET    EALL                                                                            
  MEMBERS                    1         2         3         4         5         6         7         8         9        10        11        12
                            13        14        15        16        17        18        19        20        21        22        23        24
                            25        26        27        28        29        30        31        32        33        34        35        36
                            37        38        39        40        41        42        43        44        45        46        47        48
                            49        50        51        52        53        54        55        56        57        58        59        60
                            61        62        63        64        65        66        67        68        69        70        71        72
                            73        74        75        76        77        78        79        80        81        82        83        84
                            85        86        87        88        89        90        91        92        93        94        95        96
                            97        98        99       100

  SET    TOP                                                                             
  MEMBERS                   81        82        83        84        85        86        87        88        89        90        91        92
                            93        94        95        96        97        98        99       100



                                    N O D E   S E T S


  SET    CUT                                                                             
  MEMBERS                    5       105       205       305       405       505       605       705       805       905      1005      1105
                          1205      1305      1405      1505      1605      1705      1805      1905      2005

  SET    BOTTOM                                                                          
  MEMBERS                    1         2         3         4         5         6         7         8         9        10        11        12
                            13        14        15        16        17        18        19        20        21

  SET    TOP                                                                             
  MEMBERS                 2001      2002      2003      2004      2005      2006      2007      2008      2009      2010      2011      2012
                          2013      2014      2015      2016      2017      2018      2019      2020      2021





                                 N O D E   D E F I N I T I O N S

       NODE           COORDINATES                       SINGLE POINT CONSTRAINTS 
      NUMBER                                              TYPE    PLUS    DOF

          1     0.0000       0.0000       0.0000                  1 2                                                  
          2    0.25000       0.0000       0.0000                                                                       
          3    0.50000       0.0000       0.0000                                                                       
          4    0.75000       0.0000       0.0000                                                                       
          5     1.0000       0.0000       0.0000                                                                       
          6     1.2500       0.0000       0.0000                                                                       
          7     1.5000       0.0000       0.0000                                                                       
          8     1.7500       0.0000       0.0000                                                                       
          9     2.0000       0.0000       0.0000                                                                       
         10     2.2500       0.0000       0.0000                                                                       
         11     2.5000       0.0000       0.0000                                                                       
         12     2.7500       0.0000       0.0000                                                                       
         13     3.0000       0.0000       0.0000                                                                       
         14     3.2500       0.0000       0.0000                                                                       
         15     3.5000       0.0000       0.0000                                                                       
         16     3.7500       0.0000       0.0000                                                                       
         17     4.0000       0.0000       0.0000                                                                       
         18     4.2500       0.0000       0.0000                                                                       
         19     4.5000       0.0000       0.0000                                                                       
         20     4.7500       0.0000       0.0000                                                                       
         21     5.0000       0.0000       0.0000                    2                                                  
        101     0.0000      5.00000E-02   0.0000                                                                       
        103    0.50000      5.00000E-02   0.0000                                                                       
        105     1.0000      5.00000E-02   0.0000                                                                       
        107     1.5000      5.00000E-02   0.0000                                                                       
        109     2.0000      5.00000E-02   0.0000                                                                       
        111     2.5000      5.00000E-02   0.0000                                                                       
        113     3.0000      5.00000E-02   0.0000                                                                       
        115     3.5000      5.00000E-02   0.0000                                                                       
        117     4.0000      5.00000E-02   0.0000                                                                       
        119     4.5000      5.00000E-02   0.0000                                                                       
        121     5.0000      5.00000E-02   0.0000                                                                       
        201     0.0000      0.10000       0.0000                                                                       
        202    0.25000      0.10000       0.0000                                                                       
        203    0.50000      0.10000       0.0000                                                                       
        204    0.75000      0.10000       0.0000                                                                       
        205     1.0000      0.10000       0.0000                                                                       
        206     1.2500      0.10000       0.0000                                                                       
        207     1.5000      0.10000       0.0000                                                                       
        208     1.7500      0.10000       0.0000                                                                       
        209     2.0000      0.10000       0.0000                                                                       
        210     2.2500      0.10000       0.0000                                                                       
        211     2.5000      0.10000       0.0000                                                                       
        212     2.7500      0.10000       0.0000                                                                       
        213     3.0000      0.10000       0.0000                                                                       
        214     3.2500      0.10000       0.0000                                                                       
        215     3.5000      0.10000       0.0000                                                                       
        216     3.7500      0.10000       0.0000                                                                       
        217     4.0000      0.10000       0.0000                                                                       
        218     4.2500      0.10000       0.0000                                                                       
        219     4.5000      0.10000       0.0000                                                                       
        220     4.7500      0.10000       0.0000                                                                       
        221     5.0000      0.10000       0.0000                                                                       
        301     0.0000      0.15000       0.0000                                                                       
        303    0.50000      0.15000       0.0000                                                                       
        305     1.0000      0.15000       0.0000                                                                       
        307     1.5000      0.15000       0.0000                                                                       
        309     2.0000      0.15000       0.0000                                                                       
        311     2.5000      0.15000       0.0000                                                                       
        313     3.0000      0.15000       0.0000                                                                       
        315     3.5000      0.15000       0.0000                                                                       
        317     4.0000      0.15000       0.0000                                                                       
        319     4.5000      0.15000       0.0000                                                                       
        321     5.0000      0.15000       0.0000                                                                       
        401     0.0000      0.20000       0.0000                                                                       
        402    0.25000      0.20000       0.0000                                                                       
        403    0.50000      0.20000       0.0000                                                                       
        404    0.75000      0.20000       0.0000                                                                       
        405     1.0000      0.20000       0.0000                                                                       
        406     1.2500      0.20000       0.0000                                                                       
        407     1.5000      0.20000       0.0000                                                                       
        408     1.7500      0.20000       0.0000                                                                       
        409     2.0000      0.20000       0.0000                                                                       
        410     2.2500      0.20000       0.0000                                                                       
        411     2.5000      0.20000       0.0000                                                                       
        412     2.7500      0.20000       0.0000                                                                       
        413     3.0000      0.20000       0.0000                                                                       
        414     3.2500      0.20000       0.0000                                                                       
        415     3.5000      0.20000       0.0000                                                                       
        416     3.7500      0.20000       0.0000                                                                       
        417     4.0000      0.20000       0.0000                                                                       
        418     4.2500      0.20000       0.0000                                                                       
        419     4.5000      0.20000       0.0000                                                                       
        420     4.7500      0.20000       0.0000                                                                       
        421     5.0000      0.20000       0.0000                                                                       
        501     0.0000      0.25000       0.0000                                                                       
        503    0.50000      0.25000       0.0000                                                                       
        505     1.0000      0.25000       0.0000                                                                       
        507     1.5000      0.25000       0.0000                                                                       
        509     2.0000      0.25000       0.0000                                                                       
        511     2.5000      0.25000       0.0000                                                                       
        513     3.0000      0.25000       0.0000                                                                       
        515     3.5000      0.25000       0.0000                                                                       
        517     4.0000      0.25000       0.0000                                                                       
        519     4.5000      0.25000       0.0000                                                                       
        521     5.0000      0.25000       0.0000                                                                       
        601     0.0000      0.30000       0.0000                                                                       
        602    0.25000      0.30000       0.0000                                                                       
        603    0.50000      0.30000       0.0000                                                                       
        604    0.75000      0.30000       0.0000                                                                       
        605     1.0000      0.30000       0.0000                                                                       
        606     1.2500      0.30000       0.0000                                                                       
        607     1.5000      0.30000       0.0000                                                                       
        608     1.7500      0.30000       0.0000                                                                       
        609     2.0000      0.30000       0.0000                                                                       
        610     2.2500      0.30000       0.0000                                                                       
        611     2.5000      0.30000       0.0000                                                                       
        612     2.7500      0.30000       0.0000                                                                       
        613     3.0000      0.30000       0.0000                                                                       
        614     3.2500      0.30000       0.0000                                                                       
        615     3.5000      0.30000       0.0000                                                                       
        616     3.7500      0.30000       0.0000                                                                       
        617     4.0000      0.30000       0.0000                                                                       
        618     4.2500      0.30000       0.0000                                                                       
        619     4.5000      0.30000       0.0000                                                                       
        620     4.7500      0.30000       0.0000                                                                       
        621     5.0000      0.30000       0.0000                                                                       
        701     0.0000      0.35000       0.0000                                                                       
        703    0.50000      0.35000       0.0000                                                                       
        705     1.0000      0.35000       0.0000                                                                       
        707     1.5000      0.35000       0.0000                                                                       
        709     2.0000      0.35000       0.0000                                                                       
        711     2.5000      0.35000       0.0000                                                                       
        713     3.0000      0.35000       0.0000                                                                       
        715     3.5000      0.35000       0.0000                                                                       
        717     4.0000      0.35000       0.0000                                                                       
        719     4.5000      0.35000       0.0000                                                                       
        721     5.0000      0.35000       0.0000                                                                       
        801     0.0000      0.40000       0.0000                                                                       
        802    0.25000      0.40000       0.0000                                                                       
        803    0.50000      0.40000       0.0000                                                                       
        804    0.75000      0.40000       0.0000                                                                       
        805     1.0000      0.40000       0.0000                                                                       
        806     1.2500      0.40000       0.0000                                                                       
        807     1.5000      0.40000       0.0000                                                                       
        808     1.7500      0.40000       0.0000                                                                       
        809     2.0000      0.40000       0.0000                                                                       
        810     2.2500      0.40000       0.0000                                                                       
        811     2.5000      0.40000       0.0000                                                                       
        812     2.7500      0.40000       0.0000                                                                       
        813     3.0000      0.40000       0.0000                                                                       
        814     3.2500      0.40000       0.0000                                                                       
        815     3.5000      0.40000       0.0000                                                                       
        816     3.7500      0.40000       0.0000                                                                       
        817     4.0000      0.40000       0.0000                                                                       
        818     4.2500      0.40000       0.0000                                                                       
        819     4.5000      0.40000       0.0000                                                                       
        820     4.7500      0.40000       0.0000                                                                       
        821     5.0000      0.40000       0.0000                                                                       
        901     0.0000      0.45000       0.0000                                                                       
        903    0.50000      0.45000       0.0000                                                                       
        905     1.0000      0.45000       0.0000                                                                       
        907     1.5000      0.45000       0.0000                                                                       
        909     2.0000      0.45000       0.0000                                                                       
        911     2.5000      0.45000       0.0000                                                                       
        913     3.0000      0.45000       0.0000                                                                       
        915     3.5000      0.45000       0.0000                                                                       
        917     4.0000      0.45000       0.0000                                                                       
        919     4.5000      0.45000       0.0000                                                                       
        921     5.0000      0.45000       0.0000                                                                       
       1001     0.0000      0.50000       0.0000                                                                       
       1002    0.25000      0.50000       0.0000                                                                       
       1003    0.50000      0.50000       0.0000                                                                       
       1004    0.75000      0.50000       0.0000                                                                       
       1005     1.0000      0.50000       0.0000                                                                       
       1006     1.2500      0.50000       0.0000                                                                       
       1007     1.5000      0.50000       0.0000                                                                       
       1008     1.7500      0.50000       0.0000                                                                       
       1009     2.0000      0.50000       0.0000                                                                       
       1010     2.2500      0.50000       0.0000                                                                       
       1011     2.5000      0.50000       0.0000                                                                       
       1012     2.7500      0.50000       0.0000                                                                       
       1013     3.0000      0.50000       0.0000                                                                       
       1014     3.2500      0.50000       0.0000                                                                       
       1015     3.5000      0.50000       0.0000                                                                       
       1016     3.7500      0.50000       0.0000                                                                       
       1017     4.0000      0.50000       0.0000                                                                       
       1018     4.2500      0.50000       0.0000                                                                       
       1019     4.5000      0.50000       0.0000                                                                       
       1020     4.7500      0.50000       0.0000                                                                       
       1021     5.0000      0.50000       0.0000                                                                       
       1101     0.0000      0.55000       0.0000                                                                       
       1103    0.50000      0.55000       0.0000                                                                       
       1105     1.0000      0.55000       0.0000                                                                       
       1107     1.5000      0.55000       0.0000                                                                       
       1109     2.0000      0.55000       0.0000                                                                       
       1111     2.5000      0.55000       0.0000                                                                       
       1113     3.0000      0.55000       0.0000                                                                       
       1115     3.5000      0.55000       0.0000                                                                       
       1117     4.0000      0.55000       0.0000                                                                       
       1119     4.5000      0.55000       0.0000                                                                       
       1121     5.0000      0.55000       0.0000                                                                       
       1201     0.0000      0.60000       0.0000                                                                       
       1202    0.25000      0.60000       0.0000                                                                       
       1203    0.50000      0.60000       0.0000                                                                       
       1204    0.75000      0.60000       0.0000                                                                       
       1205     1.0000      0.60000       0.0000                                                                       
       1206     1.2500      0.60000       0.0000                                                                       
       1207     1.5000      0.60000       0.0000                                                                       
       1208     1.7500      0.60000       0.0000                                                                       
       1209     2.0000      0.60000       0.0000                                                                       
       1210     2.2500      0.60000       0.0000                                                                       
       1211     2.5000      0.60000       0.0000                                                                       
       1212     2.7500      0.60000       0.0000                                                                       
       1213     3.0000      0.60000       0.0000                                                                       
       1214     3.2500      0.60000       0.0000                                                                       
       1215     3.5000      0.60000       0.0000                                                                       
       1216     3.7500      0.60000       0.0000                                                                       
       1217     4.0000      0.60000       0.0000                                                                       
       1218     4.2500      0.60000       0.0000                                                                       
       1219     4.5000      0.60000       0.0000                                                                       
       1220     4.7500      0.60000       0.0000                                                                       
       1221     5.0000      0.60000       0.0000                                                                       
       1301     0.0000      0.65000       0.0000                                                                       
       1303    0.50000      0.65000       0.0000                                                                       
       1305     1.0000      0.65000       0.0000                                                                       
       1307     1.5000      0.65000       0.0000                                                                       
       1309     2.0000      0.65000       0.0000                                                                       
       1311     2.5000      0.65000       0.0000                                                                       
       1313     3.0000      0.65000       0.0000                                                                       
       1315     3.5000      0.65000       0.0000                                                                       
       1317     4.0000      0.65000       0.0000                                                                       
       1319     4.5000      0.65000       0.0000                                                                       
       1321     5.0000      0.65000       0.0000                                                                       
       1401     0.0000      0.70000       0.0000                                                                       
       1402    0.25000      0.70000       0.0000                                                                       
       1403    0.50000      0.70000       0.0000                                                                       
       1404    0.75000      0.70000       0.0000                                                                       
       1405     1.0000      0.70000       0.0000                                                                       
       1406     1.2500      0.70000       0.0000                                                                       
       1407     1.5000      0.70000       0.0000                                                                       
       1408     1.7500      0.70000       0.0000                                                                       
       1409     2.0000      0.70000       0.0000                                                                       
       1410     2.2500      0.70000       0.0000                                                                       
       1411     2.5000      0.70000       0.0000                                                                       
       1412     2.7500      0.70000       0.0000                                                                       
       1413     3.0000      0.70000       0.0000                                                                       
       1414     3.2500      0.70000       0.0000                                                                       
       1415     3.5000      0.70000       0.0000                                                                       
       1416     3.7500      0.70000       0.0000                                                                       
       1417     4.0000      0.70000       0.0000                                                                       
       1418     4.2500      0.70000       0.0000                                                                       
       1419     4.5000      0.70000       0.0000                                                                       
       1420     4.7500      0.70000       0.0000                                                                       
       1421     5.0000      0.70000       0.0000                                                                       
       1501     0.0000      0.75000       0.0000                                                                       
       1503    0.50000      0.75000       0.0000                                                                       
       1505     1.0000      0.75000       0.0000                                                                       
       1507     1.5000      0.75000       0.0000                                                                       
       1509     2.0000      0.75000       0.0000                                                                       
       1511     2.5000      0.75000       0.0000                                                                       
       1513     3.0000      0.75000       0.0000                                                                       
       1515     3.5000      0.75000       0.0000                                                                       
       1517     4.0000      0.75000       0.0000                                                                       
       1519     4.5000      0.75000       0.0000                                                                       
       1521     5.0000      0.75000       0.0000                                                                       
       1601     0.0000      0.80000       0.0000                                                                       
       1602    0.25000      0.80000       0.0000                                                                       
       1603    0.50000      0.80000       0.0000                                                                       
       1604    0.75000      0.80000       0.0000                                                                       
       1605     1.0000      0.80000       0.0000                                                                       
       1606     1.2500      0.80000       0.0000                                                                       
       1607     1.5000      0.80000       0.0000                                                                       
       1608     1.7500      0.80000       0.0000                                                                       
       1609     2.0000      0.80000       0.0000                                                                       
       1610     2.2500      0.80000       0.0000                                                                       
       1611     2.5000      0.80000       0.0000                                                                       
       1612     2.7500      0.80000       0.0000                                                                       
       1613     3.0000      0.80000       0.0000                                                                       
       1614     3.2500      0.80000       0.0000                                                                       
       1615     3.5000      0.80000       0.0000                                                                       
       1616     3.7500      0.80000       0.0000                                                                       
       1617     4.0000      0.80000       0.0000                                                                       
       1618     4.2500      0.80000       0.0000                                                                       
       1619     4.5000      0.80000       0.0000                                                                       
       1620     4.7500      0.80000       0.0000                                                                       
       1621     5.0000      0.80000       0.0000                                                                       
       1701     0.0000      0.85000       0.0000                                                                       
       1703    0.50000      0.85000       0.0000                                                                       
       1705     1.0000      0.85000       0.0000                                                                       
       1707     1.5000      0.85000       0.0000                                                                       
       1709     2.0000      0.85000       0.0000                                                                       
       1711     2.5000      0.85000       0.0000                                                                       
       1713     3.0000      0.85000       0.0000                                                                       
       1715     3.5000      0.85000       0.0000                                                                       
       1717     4.0000      0.85000       0.0000                                                                       
       1719     4.5000      0.85000       0.0000                                                                       
       1721     5.0000      0.85000       0.0000                                                                       
       1801     0.0000      0.90000       0.0000                                                                       
       1802    0.25000      0.90000       0.0000                                                                       
       1803    0.50000      0.90000       0.0000                                                                       
       1804    0.75000      0.90000       0.0000                                                                       
       1805     1.0000      0.90000       0.0000                                                                       
       1806     1.2500      0.90000       0.0000                                                                       
       1807     1.5000      0.90000       0.0000                                                                       
       1808     1.7500      0.90000       0.0000                                                                       
       1809     2.0000      0.90000       0.0000                                                                       
       1810     2.2500      0.90000       0.0000                                                                       
       1811     2.5000      0.90000       0.0000                                                                       
       1812     2.7500      0.90000       0.0000                                                                       
       1813     3.0000      0.90000       0.0000                                                                       
       1814     3.2500      0.90000       0.0000                                                                       
       1815     3.5000      0.90000       0.0000                                                                       
       1816     3.7500      0.90000       0.0000                                                                       
       1817     4.0000      0.90000       0.0000                                                                       
       1818     4.2500      0.90000       0.0000                                                                       
       1819     4.5000      0.90000       0.0000                                                                       
       1820     4.7500      0.90000       0.0000                                                                       
       1821     5.0000      0.90000       0.0000                                                                       
       1901     0.0000      0.95000       0.0000                                                                       
       1903    0.50000      0.95000       0.0000                                                                       
       1905     1.0000      0.95000       0.0000                                                                       
       1907     1.5000      0.95000       0.0000                                                                       
       1909     2.0000      0.95000       0.0000                                                                       
       1911     2.5000      0.95000       0.0000                                                                       
       1913     3.0000      0.95000       0.0000                                                                       
       1915     3.5000      0.95000       0.0000                                                                       
       1917     4.0000      0.95000       0.0000                                                                       
       1919     4.5000      0.95000       0.0000                                                                       
       1921     5.0000      0.95000       0.0000                                                                       
       2001     0.0000       1.0000       0.0000                                                                       
       2002    0.25000       1.0000       0.0000                                                                       
       2003    0.50000       1.0000       0.0000                                                                       
       2004    0.75000       1.0000       0.0000                                                                       
       2005     1.0000       1.0000       0.0000                                                                       
       2006     1.2500       1.0000       0.0000                                                                       
       2007     1.5000       1.0000       0.0000                                                                       
       2008     1.7500       1.0000       0.0000                                                                       
       2009     2.0000       1.0000       0.0000                                                                       
       2010     2.2500       1.0000       0.0000                                                                       
       2011     2.5000       1.0000       0.0000                                                                       
       2012     2.7500       1.0000       0.0000                                                                       
       2013     3.0000       1.0000       0.0000                                                                       
       2014     3.2500       1.0000       0.0000                                                                       
       2015     3.5000       1.0000       0.0000                                                                       
       2016     3.7500       1.0000       0.0000                                                                       
       2017     4.0000       1.0000       0.0000                                                                       
       2018     4.2500       1.0000       0.0000                                                                       
       2019     4.5000       1.0000       0.0000                                                                       
       2020     4.7500       1.0000       0.0000                                                                       
       2021     5.0000       1.0000       0.0000                                                                       
1

   Abaqus 6.12-1                                  Date 04-Nov-2016   Time 16:55:01
   For use at  under license from Dassault Systemes or its subsidiary.

     5m LONG BY 1m DEEP BY 0.2m THICK SIMPLY SUPPORTED BEAM WITH 100 KN/M DISTRIBUTED


                        S T E P       1     S T A T I C   A N A L Y S I S


                                                                                          

          FIXED TIME INCREMENTS
          TIME INCREMENT IS                                    2.220E-16
          TIME PERIOD IS                                       2.220E-16
     GLOBAL STABILIZATION CONTROL IS NOT USED

     THIS IS A LINEAR PERTURBATION STEP.
     ALL LOADS ARE DEFINED AS CHANGE IN LOAD TO THE REFERENCE STATE

     EXTRAPOLATION WILL NOT BE USED

     CHARACTERISTIC ELEMENT LENGTH     0.300    

     DETAILS REGARDING ACTUAL SOLUTION WAVEFRONT REQUESTED

     DETAILED OUTPUT OF DIAGNOSTICS TO DATABASE REQUESTED

     PRINT OF INCREMENT NUMBER, TIME, ETC., TO THE MESSAGE FILE EVERY     1  INCREMENTS



                              D A T A B A S E   O U T P U T   G R O U P       1


  THE FOLLOWING  FIELD   OUTPUT WILL BE WRITTEN EVERY        1 INCREMENT(S)



   THE FOLLOWING OUTPUT WILL BE WRITTEN FOR ALL ELEMENTS OF TYPE CPS8.  OUTPUT IS AT THE 
   INTEGRATION POINTS.

          S           E           



   THE FOLLOWING OUTPUT WILL BE WRITTEN FOR ALL NODES


            U         RF        CF      



  END OF DATABASE OUTPUT GROUP    1




                              D A T A B A S E   O U T P U T   G R O U P       2


  THE FOLLOWING HISTORY  OUTPUT WILL BE WRITTEN EVERY        1 INCREMENT(S)



   THE FOLLOWING ENERGY OUTPUT QUANTITIES WILL BE WRITTEN FOR THE WHOLE MODEL

          ALLKE       ALLSE       ALLWK       ALLPD       ALLCD       ALLVD       ALLKL       ALLAE       ALLQB       

          ALLEE       ALLIE       ETOTAL      ALLFD       ALLJD       ALLSD       ALLDMD      

  END OF DATABASE OUTPUT GROUP    2





                                    E L E M E N T   P R I N T




   THE FOLLOWING TABLE IS PRINTED AT EVERY 1 INCREMENT FOR ALL ELEMENTS OF TYPE CPS8.  OUTPUT IS AT 
   THE INTEGRATION POINTS.

     SUMMARIES WILL BE PRINTED WHERE APPLICABLE

          TABLE     1COORD1      COORD2      



   THE FOLLOWING TABLE IS PRINTED AT EVERY 1 INCREMENT FOR ALL ELEMENTS OF TYPE CPS8.  OUTPUT IS AT 
   THE INTEGRATION POINTS.

     SUMMARIES WILL BE PRINTED WHERE APPLICABLE

          TABLE     2S11         S22         S12         



   THE FOLLOWING TABLE IS PRINTED AT EVERY 1 INCREMENT FOR ALL ELEMENTS OF TYPE CPS8.  OUTPUT IS AT 
   THE INTEGRATION POINTS.

     SUMMARIES WILL BE PRINTED WHERE APPLICABLE

          TABLE     3E11         E22         E12         



   THE FOLLOWING TABLE IS PRINTED AT EVERY 1 INCREMENT FOR ALL ELEMENTS OF TYPE CPS8.  OUTPUT IS 
   AVERAGED AT THE NODES.

     SUMMARIES WILL BE PRINTED WHERE APPLICABLE

          TABLE     4S11         S22         S12         




                                       N O D E   P R I N T




   THE FOLLOWING TABLE IS PRINTED FOR ALL NODES AT EVERY 1 INCREMENT

     SUMMARIES WILL BE PRINTED

          TABLE  1  U1        U2      



   THE FOLLOWING TABLE IS PRINTED FOR ALL NODES AT EVERY 1 INCREMENT

     SUMMARIES WILL BE PRINTED

          TABLE  2  RF1       RF2     





                               D I S T R I B U T E D   L O A D S


   ELEMENT LOAD     AMP.     MAGNITUDE   TRAC. VECTOR                                            ORI.     FLW.  CONST.
           TYPE     REF.

        81 P3                5.00000E+05
        82 P3                5.00000E+05
        83 P3                5.00000E+05
        84 P3                5.00000E+05
        85 P3                5.00000E+05
        86 P3                5.00000E+05
        87 P3                5.00000E+05
        88 P3                5.00000E+05
        89 P3                5.00000E+05
        90 P3                5.00000E+05
        91 P3                5.00000E+05
        92 P3                5.00000E+05
        93 P3                5.00000E+05
        94 P3                5.00000E+05
        95 P3                5.00000E+05
        96 P3                5.00000E+05
        97 P3                5.00000E+05
        98 P3                5.00000E+05
        99 P3                5.00000E+05
       100 P3                5.00000E+05




                              B O U N D A R Y   C O N D I T I O N S


      NODE      DOF     AMP.    MAGNITUDE                 NODE      DOF     AMP.    MAGNITUDE
                        REF.                                                REF.

           1    1     (RAMP)     0.0000                        1    2     (RAMP)     0.0000               
          21    2     (RAMP)     0.0000               

     - (RAMP) OR (STEP) - INDICATE USE OF DEFAULT AMPLITUDES ASSOCIATED WITH THE STEP




                      C O N S T R A I N T    C H E C K S

            PERFORM CONSTRAINT CHECKS:                        YES
            AUTOMATIC MODEL CHANGES:                          YES
            CONSTRAINT CHECKS FREQUENCY:                             1
            TERMINATE ANALYSIS IF OVERCONSTRAINTS ARE FOUND:  NO             



                            P R O B L E M   S I Z E


          NUMBER OF ELEMENTS IS                                   100
          NUMBER OF NODES IS                                      341
          NUMBER OF NODES DEFINED BY THE USER                     341
          TOTAL NUMBER OF VARIABLES IN THE MODEL                  682
          (DEGREES OF FREEDOM PLUS MAX NO. OF ANY LAGRANGE MULTIPLIER
           VARIABLES. INCLUDE *PRINT,SOLVE=YES TO GET THE ACTUAL NUMBER.)



                              END OF USER INPUT PROCESSING



     JOB TIME SUMMARY
       USER TIME (SEC)      =  0.21000    
       SYSTEM TIME (SEC)    =  9.00000E-02
       TOTAL CPU TIME (SEC) =  0.30000    
       WALLCLOCK TIME (SEC) =          1
1

   Abaqus 6.12-1                                  Date 04-Nov-2016   Time 16:55:03
   For use at  under license from Dassault Systemes or its subsidiary.

     5m LONG BY 1m DEEP BY 0.2m THICK SIMPLY SUPPORTED BEAM WITH 100 KN/M DISTRIBUTED          STEP    1  INCREMENT    1
                                                                                          TIME COMPLETED IN THIS STEP   0.00    


                        S T E P       1     S T A T I C   A N A L Y S I S


                                                                                          

          FIXED TIME INCREMENTS
          TIME INCREMENT IS                                    2.220E-16
          TIME PERIOD IS                                       2.220E-16

     LINEAR EQUATION SOLVER TYPE         DIRECT SPARSE

     THIS IS A LINEAR PERTURBATION STEP.
     ALL LOADS ARE DEFINED AS CHANGE IN LOAD TO THE REFERENCE STATE
  
                   M E M O R Y   E S T I M A T E
  
 PROCESS      FLOATING PT       MINIMUM MEMORY        MEMORY TO
              OPERATIONS           REQUIRED          MINIMIZE I/O
             PER ITERATION         (MBYTES)           (MBYTES)
  
     1          1.03E+06               13                 20
  
 NOTE:
      (1) SINCE ABAQUS DOES NOT PRE-ALLOCATE MEMORY AND ONLY ALLOCATES MEMORY AS NEEDED DURING THE ANALYSIS,
          THE MEMORY REQUIREMENT PRINTED HERE CAN ONLY BE VIEWED AS A GENERAL GUIDELINE BASED ON THE BEST
          KNOWLEDGE AVAILABLE AT THE BEGINNING OF A STEP BEFORE THE SOLUTION PROCESS HAS BEGUN.
      (2) THE ESTIMATE IS NORMALLY UPDATED AT THE BEGINNING OF EVERY STEP. IT IS THE MAXIMUM VALUE OF THE
          ESTIMATE FROM THE CURRENT STEP TO THE LAST STEP OF THE ANALYSIS, WITH UNSYMMETRIC SOLUTION TAKEN
          INTO ACCOUNT IF APPLICABLE. 
      (3) SINCE THE ESTIMATE IS BASED ON THE ACTIVE DEGREES OF FREEDOM IN THE FIRST ITERATION OF THE 
          CURRENT STEP, THE MEMORY ESTIMATE MIGHT BE SIGNIFICANTLY DIFFERENT THAN ACTUAL USAGE FOR 
          PROBLEMS WITH SUBSTANTIAL CHANGES IN ACTIVE DEGREES OF FREEDOM BETWEEN STEPS (OR EVEN WITHIN
          THE SAME STEP). EXAMPLES ARE: PROBLEMS WITH SIGNIFICANT CONTACT CHANGES, PROBLEMS WITH MODEL
          CHANGE, PROBLEMS WITH BOTH STATIC STEP AND STEADY STATE DYNAMIC PROCEDURES WHERE ACOUSTIC 
          ELEMENTS WILL ONLY BE ACTIVATED IN THE STEADY STATE DYNAMIC STEPS.
      (4) FOR MULTI-PROCESS EXECUTION, THE ESTIMATED VALUE OF FLOATING POINT OPERATIONS FOR EACH PROCESS
          IS BASED ON AN INITIAL SCHEDULING OF OPERATIONS AND MIGHT NOT REFLECT THE ACTUAL FLOATING 
          POINT OPERATIONS COMPLETED ON EACH PROCESS. OPERATIONS ARE DYNAMICALLY BALANCED DURING EXECUTION, 
          SO THE ACTUAL BALANCE OF OPERATIONS BETWEEN PROCESSES IS EXPECTED TO BE BETTER THAN THE ESTIMATE
          PRINTED HERE.
      (5) THE UPPER LIMIT OF MEMORY THAT CAN BE ALLOCATED BY ABAQUS WILL IN GENERAL DEPEND ON THE VALUE OF
          THE "MEMORY" PARAMETER AND THE AMOUNT OF PHYSICAL MEMORY AVAILABLE ON THE MACHINE. PLEASE SEE
          THE "ABAQUS ANALYSIS USER'S MANUAL" FOR MORE DETAILS. THE ACTUAL USAGE OF MEMORY AND OF DISK
          SPACE FOR SCRATCH DATA WILL DEPEND ON THIS UPPER LIMIT AS WELL AS THE MEMORY REQUIRED TO MINIMIZE
          I/O. IF THE MEMORY UPPER LIMIT IS GREATER THAN THE MEMORY REQUIRED TO MINIMIZE I/O, THEN THE ACTUAL
          MEMORY USAGE WILL BE CLOSE TO THE ESTIMATED "MEMORY TO MINIMIZE I/O" VALUE, AND THE SCRATCH DISK
          USAGE WILL BE CLOSE-TO-ZERO; OTHERWISE, THE ACTUAL MEMORY USED WILL BE CLOSE TO THE PREVIOUSLY
          MENTIONED MEMORY LIMIT, AND THE SCRATCH DISK USAGE WILL BE ROUGHLY PROPORTIONAL TO THE DIFFERENCE
          BETWEEN THE ESTIMATED "MEMORY TO MINIMIZE I/O" AND THE MEMORY UPPER LIMIT. HOWEVER ACCURATE
          ESTIMATE OF THE SCRATCH DISK SPACE IS NOT POSSIBLE.
      (6) USING "*RESTART, WRITE" CAN GENERATE A LARGE AMOUNT OF DATA WRITTEN IN THE WORK DIRECTORY.


                                INCREMENT     1 SUMMARY


 TIME INCREMENT COMPLETED  2.220E-16,  FRACTION OF STEP COMPLETED   1.00    
 STEP TIME COMPLETED       2.220E-16,  TOTAL TIME COMPLETED         0.00    



                                                  E L E M E N T   O U T P U T





   THE FOLLOWING TABLE IS PRINTED FOR ALL ELEMENTS WITH TYPE CPS8 AT THE INTEGRATION POINTS

    ELEMENT  PT FOOT-       COORD1      COORD2      
                NOTE 

           1   1         5.6351E-02  1.1270E-02
           1   2         0.2500      1.1270E-02
           1   3         0.4436      1.1270E-02
           1   4         5.6351E-02  5.0000E-02
           1   5         0.2500      5.0000E-02
           1   6         0.4436      5.0000E-02
           1   7         5.6351E-02  8.8730E-02
           1   8         0.2500      8.8730E-02
           1   9         0.4436      8.8730E-02
           2   1         0.5564      1.1270E-02
           2   2         0.7500      1.1270E-02
           2   3         0.9436      1.1270E-02
           2   4         0.5564      5.0000E-02
           2   5         0.7500      5.0000E-02
           2   6         0.9436      5.0000E-02
           2   7         0.5564      8.8730E-02
           2   8         0.7500      8.8730E-02
           2   9         0.9436      8.8730E-02
           3   1          1.056      1.1270E-02
           3   2          1.250      1.1270E-02
           3   3          1.444      1.1270E-02
           3   4          1.056      5.0000E-02
           3   5          1.250      5.0000E-02
           3   6          1.444      5.0000E-02
           3   7          1.056      8.8730E-02
           3   8          1.250      8.8730E-02
           3   9          1.444      8.8730E-02
           4   1          1.556      1.1270E-02
           4   2          1.750      1.1270E-02
           4   3          1.944      1.1270E-02
           4   4          1.556      5.0000E-02
           4   5          1.750      5.0000E-02
           4   6          1.944      5.0000E-02
           4   7          1.556      8.8730E-02
           4   8          1.750      8.8730E-02
           4   9          1.944      8.8730E-02
           5   1          2.056      1.1270E-02
           5   2          2.250      1.1270E-02
           5   3          2.444      1.1270E-02
           5   4          2.056      5.0000E-02
           5   5          2.250      5.0000E-02
           5   6          2.444      5.0000E-02
           5   7          2.056      8.8730E-02
           5   8          2.250      8.8730E-02
           5   9          2.444      8.8730E-02
           6   1          2.556      1.1270E-02
           6   2          2.750      1.1270E-02
           6   3          2.944      1.1270E-02
           6   4          2.556      5.0000E-02
           6   5          2.750      5.0000E-02
           6   6          2.944      5.0000E-02
           6   7          2.556      8.8730E-02
           6   8          2.750      8.8730E-02
           6   9          2.944      8.8730E-02
           7   1          3.056      1.1270E-02
           7   2          3.250      1.1270E-02
           7   3          3.444      1.1270E-02
           7   4          3.056      5.0000E-02
           7   5          3.250      5.0000E-02
           7   6          3.444      5.0000E-02
           7   7          3.056      8.8730E-02
[...]
        1602      -1.6899E+06 -1.7189E+06 -1.7311E+06
        1603      -3.6217E+06 -8.2165E+05 -2.9737E+06
        1604      -5.5030E+06 -7.4489E+05 -1.9475E+06
        1605      -7.2215E+06 -8.3966E+05 -1.7698E+06
        1606      -8.3471E+06 -8.6982E+05 -1.1912E+06
        1607      -9.4957E+06 -9.0808E+05 -1.0671E+06
        1608      -1.0166E+07 -8.9449E+05 -6.8931E+05
        1609      -1.0847E+07 -9.1555E+05 -5.3049E+05
        1610      -1.1066E+07 -8.9454E+05 -2.2980E+05
        1611      -1.1297E+07 -9.1541E+05 -3.6380E-12
        1612      -1.1066E+07 -8.9454E+05  2.2980E+05
        1613      -1.0847E+07 -9.1555E+05  5.3049E+05
        1614      -1.0166E+07 -8.9449E+05  6.8931E+05
        1615      -9.4957E+06 -9.0808E+05  1.0671E+06
        1616      -8.3471E+06 -8.6982E+05  1.1912E+06
        1617      -7.2215E+06 -8.3966E+05  1.7698E+06
        1618      -5.5030E+06 -7.4489E+05  1.9475E+06
        1619      -3.6217E+06 -8.2165E+05  2.9737E+06
        1620      -1.6899E+06 -1.7189E+06  1.7311E+06
        1621       3.3467E+05 -1.6629E+06  5.3003E+05
        1701       3.9110E+05 -1.2616E+06 -3.0349E+05
        1703      -3.9352E+06 -8.3829E+05 -2.4389E+06
        1705      -8.4475E+06 -9.0308E+05 -1.4413E+06
        1707      -1.1124E+07 -9.4370E+05 -8.5870E+05
        1709      -1.2695E+07 -9.4967E+05 -4.2643E+05
        1711      -1.3219E+07 -9.4931E+05   0.000
        1713      -1.2695E+07 -9.4967E+05  4.2643E+05
        1715      -1.1124E+07 -9.4370E+05  8.5870E+05
        1717      -8.4475E+06 -9.0308E+05  1.4413E+06
        1719      -3.9352E+06 -8.3829E+05  2.4389E+06
        1721       3.9110E+05 -1.2616E+06  3.0349E+05
        1801       5.6071E+05 -6.6651E+05 -7.7443E+04
        1802      -1.7509E+06 -1.0160E+06 -8.9924E+05
        1803      -4.1779E+06 -6.4839E+05 -1.8810E+06
        1804      -7.0877E+06 -6.6075E+05 -1.1251E+06
        1805      -9.6407E+06 -7.4368E+05 -1.0587E+06
        1806      -1.1151E+07 -7.2116E+05 -6.5614E+05
        1807      -1.2708E+07 -7.3749E+05 -6.3052E+05
        1808      -1.3590E+07 -7.2191E+05 -3.8080E+05
        1809      -1.4495E+07 -7.4265E+05 -3.1281E+05
        1810      -1.4787E+07 -7.2296E+05 -1.2652E+05
        1811      -1.5093E+07 -7.4126E+05 -9.0949E-13
        1812      -1.4787E+07 -7.2296E+05  1.2652E+05
        1813      -1.4495E+07 -7.4265E+05  3.1281E+05
        1814      -1.3590E+07 -7.2191E+05  3.8080E+05
        1815      -1.2708E+07 -7.3749E+05  6.3052E+05
        1816      -1.1151E+07 -7.2116E+05  6.5614E+05
        1817      -9.6407E+06 -7.4368E+05  1.0587E+06
        1818      -7.0877E+06 -6.6075E+05  1.1251E+06
        1819      -4.1779E+06 -6.4839E+05  1.8810E+06
        1820      -1.7509E+06 -1.0160E+06  8.9924E+05
        1821       5.6071E+05 -6.6651E+05  7.7443E+04
        1901       7.5216E+05 -4.2535E+05 -2.3052E+04
        1903      -4.4394E+06 -4.3491E+05 -1.0405E+06
        1905      -1.0840E+07 -5.0629E+05 -5.9763E+05
        1907      -1.4297E+07 -4.9896E+05 -3.4444E+05
        1909      -1.6303E+07 -4.9836E+05 -1.7203E+05
        1911      -1.6976E+07 -4.9842E+05   0.000
        1913      -1.6303E+07 -4.9836E+05  1.7203E+05
        1915      -1.4297E+07 -4.9896E+05  3.4444E+05
        1917      -1.0840E+07 -5.0629E+05  5.9763E+05
        1919      -4.4394E+06 -4.3491E+05  1.0405E+06
        1921       7.5216E+05 -4.2535E+05  2.3052E+04
        2001       1.0903E+06 -3.0165E+05  3.0736E+04
        2002      -1.3918E+06 -5.2451E+05   3399.
        2003      -4.7198E+06 -4.2945E+05 -2.0575E+05
        2004      -8.8862E+06 -5.1352E+05  9.6063E+04
        2005      -1.2183E+07 -5.3240E+05 -1.7113E+05
        2006      -1.4091E+07 -5.0338E+05  2.6852E+04
        2007      -1.5997E+07 -5.1703E+05 -7.1268E+04
        2008      -1.7121E+07 -5.0495E+05  1.8524E+04
        2009      -1.8220E+07 -5.1470E+05 -3.7165E+04
        2010      -1.8613E+07 -5.0423E+05   5648.
        2011      -1.8968E+07 -5.1511E+05   0.000
        2012      -1.8613E+07 -5.0423E+05  -5648.
        2013      -1.8220E+07 -5.1470E+05  3.7165E+04
        2014      -1.7121E+07 -5.0495E+05 -1.8524E+04
        2015      -1.5997E+07 -5.1703E+05  7.1268E+04
        2016      -1.4091E+07 -5.0338E+05 -2.6852E+04
        2017      -1.2183E+07 -5.3240E+05  1.7113E+05
        2018      -8.8862E+06 -5.1352E+05 -9.6063E+04
        2019      -4.7198E+06 -4.2945E+05  2.0575E+05
        2020      -1.3918E+06 -5.2451E+05  -3399.
        2021       1.0903E+06 -3.0165E+05 -3.0736E+04

 MAXIMUM          1.9087E+07  4.8847E+06  6.1785E+06                                                                        
  NODE                11           2         321                                                                         

 MINIMUM         -1.8968E+07 -3.9359E+07 -6.1785E+06                                                                        
  NODE              2011          21         301                                                                         
  
  
  
  
                                       N O D E   O U T P U T
  
  
  
  
   THE FOLLOWING TABLE IS PRINTED FOR ALL NODES
  
       NODE FOOT-   U1          U2       
            NOTE
  
          2      1.9174E-05 -1.3537E-04 
          3      3.5287E-05 -2.1746E-04 
          4      4.6573E-05 -2.9656E-04 
          5      6.0664E-05 -3.6652E-04 
          6      7.7429E-05 -4.2872E-04 
          7      9.6355E-05 -4.8121E-04 
          8      1.1720E-04 -5.2323E-04 
          9      1.3938E-04 -5.5380E-04 
         10      1.6257E-04 -5.7242E-04 
         11      1.8621E-04 -5.7864E-04 
         12      2.0984E-04 -5.7242E-04 
         13      2.3304E-04 -5.5380E-04 
         14      2.5522E-04 -5.2323E-04 
         15      2.7606E-04 -4.8121E-04 
         16      2.9499E-04 -4.2872E-04 
         17      3.1175E-04 -3.6652E-04 
         18      3.2584E-04 -2.9656E-04 
         19      3.3713E-04 -2.1746E-04 
         20      3.5324E-04 -1.3537E-04 
         21      3.7242E-04   0.000     
        101      2.8912E-05 -9.9299E-06 
        103      5.0037E-05 -2.1918E-04 
        105      7.3916E-05 -3.6752E-04 
        107      1.0573E-04 -4.8237E-04 
        109      1.4429E-04 -5.5510E-04 
        111      1.8621E-04 -5.7999E-04 
        113      2.2813E-04 -5.5510E-04 
        115      2.6669E-04 -4.8237E-04 
        117      2.9850E-04 -3.6752E-04 
        119      3.2238E-04 -2.1918E-04 
        121      3.4350E-04 -9.9299E-06 
        201      5.3532E-05 -1.9327E-05 
        202      5.9909E-05 -1.3461E-04 
        203      6.5685E-05 -2.2078E-04 
        204      7.5866E-05 -2.9781E-04 
        205      8.6647E-05 -3.6844E-04 
        206      1.0003E-04 -4.3060E-04 
        207      1.1502E-04 -4.8340E-04 
        208      1.3151E-04 -5.2555E-04 
        209      1.4911E-04 -5.5627E-04 
        210      1.6747E-04 -5.7494E-04 
        211      1.8621E-04 -5.8120E-04 
        212      2.0495E-04 -5.7494E-04 
        213      2.2331E-04 -5.5627E-04 
        214      2.4091E-04 -5.2555E-04 
        215      2.5740E-04 -4.8340E-04 
        216      2.7239E-04 -4.3060E-04 
        217      2.8577E-04 -3.6844E-04 
        218      2.9655E-04 -2.9781E-04 
        219      3.0673E-04 -2.2078E-04 
        220      3.1251E-04 -1.3461E-04 
        221      3.1889E-04 -1.9327E-05 
        301      7.4252E-05 -2.6727E-05 
        303      8.1646E-05 -2.2143E-04 
        305      9.9528E-05 -3.6910E-04 
        307      1.2413E-04 -4.8428E-04 
        309      1.5386E-04 -5.5729E-04 
        311      1.8621E-04 -5.8227E-04 
        313      2.1856E-04 -5.5729E-04 
        315      2.4829E-04 -4.8428E-04 
        317      2.7289E-04 -3.6910E-04 
        319      2.9077E-04 -2.2143E-04 
        321      2.9817E-04 -2.6727E-05 
        401      9.2893E-05 -3.3839E-05 
        402      9.6168E-05 -1.3452E-04 
        403      9.7543E-05 -2.2205E-04 
        404      1.0406E-04 -2.9895E-04 
        405      1.1221E-04 -3.6965E-04 
        406      1.2194E-04 -4.3212E-04 
        407      1.3314E-04 -4.8506E-04 
        408      1.4541E-04 -5.2736E-04 
        409      1.5854E-04 -5.5819E-04 
        410      1.7223E-04 -5.7691E-04 
        411      1.8621E-04 -5.8320E-04 
        412      2.0018E-04 -5.7691E-04 
        413      2.1387E-04 -5.5819E-04 
        414      2.2701E-04 -5.2736E-04 
        415      2.3928E-04 -4.8506E-04 
        416      2.5048E-04 -4.3212E-04 
        417      2.6021E-04 -3.6965E-04 
        418      2.6836E-04 -2.9895E-04 
        419      2.7487E-04 -2.2205E-04 
        420      2.7625E-04 -1.3452E-04 
        421      2.7952E-04 -3.3839E-05 
        501      1.1022E-04 -3.9242E-05 
        503      1.1319E-04 -2.2209E-04 
        505      1.2465E-04 -3.7015E-04 
        507      1.4202E-04 -4.8573E-04 
        509      1.6317E-04 -5.5896E-04 
        511      1.8621E-04 -5.8401E-04 
        513      2.0924E-04 -5.5896E-04 
        515      2.3039E-04 -4.8573E-04 
        517      2.4777E-04 -3.7015E-04 
        519      2.5922E-04 -2.2209E-04 
        521      2.6219E-04 -3.9242E-05 
        601      1.2652E-04 -4.4352E-05 
        602      1.2878E-04 -1.3532E-04 
        603      1.2853E-04 -2.2219E-04 
        604      1.3176E-04 -2.9968E-04 
        605      1.3700E-04 -3.7052E-04 
        606      1.4339E-04 -4.3322E-04 
        607      1.5082E-04 -4.8631E-04 
        608      1.5901E-04 -5.2871E-04 
        609      1.6776E-04 -5.5961E-04 
        610      1.7689E-04 -5.7837E-04 
        611      1.8621E-04 -5.8468E-04 
        612      1.9552E-04 -5.7837E-04 
        613      2.0465E-04 -5.5961E-04 
        614      2.1341E-04 -5.2871E-04 
        615      2.2160E-04 -4.8631E-04 
        616      2.2903E-04 -4.3322E-04 
        617      2.3541E-04 -3.7052E-04 
        618      2.4066E-04 -2.9968E-04 
        619      2.4388E-04 -2.2219E-04 
        620      2.4364E-04 -1.3532E-04 
        621      2.4590E-04 -4.4352E-05 
        701      1.4221E-04 -4.8237E-05 
        703      1.4352E-04 -2.2205E-04 
        705      1.4918E-04 -3.7087E-04 
        707      1.5956E-04 -4.8677E-04 
        709      1.7232E-04 -5.6014E-04 
        711      1.8621E-04 -5.8523E-04 
        713      2.0010E-04 -5.6014E-04 
        715      2.1286E-04 -4.8677E-04 
        717      2.2323E-04 -3.7087E-04 
        719      2.2890E-04 -2.2205E-04 
        721      2.3021E-04 -4.8237E-05 
        801      1.5738E-04 -5.1820E-05 
        802      1.5908E-04 -1.3660E-04 
        803      1.5821E-04 -2.2200E-04 
        804      1.5895E-04 -3.0001E-04 
        805      1.6131E-04 -3.7109E-04 
        806      1.6448E-04 -4.3394E-04 
        807      1.6824E-04 -4.8715E-04 
        808      1.7240E-04 -5.2961E-04 
        809      1.7685E-04 -5.6055E-04 
        810      1.8148E-04 -5.7933E-04 
        811      1.8621E-04 -5.8565E-04 
        812      1.9093E-04 -5.7933E-04 
        813      1.9557E-04 -5.6055E-04 
        814      2.0001E-04 -5.2961E-04 
        815      2.0418E-04 -4.8715E-04 
        816      2.0794E-04 -4.3394E-04 
        817      2.1110E-04 -3.7109E-04 
        818      2.1346E-04 -3.0001E-04 
        819      2.1421E-04 -2.2200E-04 
        820      2.1334E-04 -1.3660E-04 
        821      2.1504E-04 -5.1820E-05 
        901      1.7226E-04 -5.4553E-05 
        903      1.7263E-04 -2.2186E-04 
        905      1.7335E-04 -3.7129E-04 
        907      1.7689E-04 -4.8741E-04 
        909      1.8136E-04 -5.6085E-04 
        911      1.8621E-04 -5.8596E-04 
        913      1.9105E-04 -5.6085E-04 
        915      1.9553E-04 -4.8741E-04 
        917      1.9906E-04 -3.7129E-04 
        919      1.9979E-04 -2.2186E-04 
        921      2.0016E-04 -5.4553E-05 
       1001      1.8691E-04 -5.6995E-05 
       1002      1.8811E-04 -1.3800E-04 
       1003      1.8686E-04 -2.2179E-04 
       1004      1.8571E-04 -3.0006E-04 
       1005      1.8537E-04 -3.7138E-04 
       1006      1.8539E-04 -4.3431E-04 
       1007      1.8552E-04 -4.8758E-04 
       1008      1.8569E-04 -5.3007E-04 
       1009      1.8587E-04 -5.6103E-04 
       1010      1.8604E-04 -5.7982E-04 
       1011      1.8621E-04 -5.8614E-04 
       1012      1.8638E-04 -5.7982E-04 
       1013      1.8655E-04 -5.6103E-04 
       1014      1.8672E-04 -5.3007E-04 
       1015      1.8689E-04 -4.8758E-04 
       1016      1.8703E-04 -4.3431E-04 
       1017      1.8705E-04 -3.7138E-04 
       1018      1.8671E-04 -3.0006E-04 
       1019      1.8556E-04 -2.2179E-04 
       1020      1.8431E-04 -1.3800E-04 
       1021      1.8551E-04 -5.6995E-05 
       1101      2.0143E-04 -5.8841E-05 
       1103      2.0094E-04 -2.2169E-04 
       1105      1.9737E-04 -3.7142E-04 
       1107      1.9416E-04 -4.8765E-04 
       1109      1.9037E-04 -5.6110E-04 
       1111      1.8621E-04 -5.8621E-04 
       1113      1.8204E-04 -5.6110E-04 
       1115      1.7826E-04 -4.8765E-04 
       1117      1.7505E-04 -3.7142E-04 
       1119      1.7148E-04 -2.2169E-04 
       1121      1.7099E-04 -5.8841E-05 
       1201      2.1590E-04 -6.0427E-05 
       1202      2.1660E-04 -1.3928E-04 
       1203      2.1495E-04 -2.2165E-04 
       1204      2.1224E-04 -2.9991E-04 
       1205      2.0938E-04 -3.7138E-04 
       1206      2.0628E-04 -4.3435E-04 
       1207      2.0281E-04 -4.8762E-04 
       1208      1.9899E-04 -5.3010E-04 
       1209      1.9489E-04 -5.6105E-04 
       1210      1.9060E-04 -5.7983E-04 
       1211      1.8621E-04 -5.8615E-04 
       1212      1.8182E-04 -5.7983E-04 
       1213      1.7753E-04 -5.6105E-04 
       1214      1.7343E-04 -5.3010E-04 
       1215      1.6961E-04 -4.8762E-04 
       1216      1.6613E-04 -4.3435E-04 
       1217      1.6303E-04 -3.7138E-04 
       1218      1.6018E-04 -2.9991E-04 
       1219      1.5747E-04 -2.2165E-04 
       1220      1.5582E-04 -1.3928E-04 
       1221      1.5651E-04 -6.0427E-05 
       1301      2.3037E-04 -6.1598E-05 
       1303      2.2893E-04 -2.2158E-04 
       1305      2.2144E-04 -3.7129E-04 
       1307      2.1150E-04 -4.8750E-04 
       1309      1.9942E-04 -5.6089E-04 
       1311      1.8621E-04 -5.8597E-04 
       1313      1.7300E-04 -5.6089E-04 
       1315      1.6092E-04 -4.8750E-04 
       1317      1.5098E-04 -3.7129E-04 
       1319      1.4349E-04 -2.2158E-04 
       1321      1.4205E-04 -6.1598E-05 
       1401      2.4491E-04 -6.2552E-05 
       1402      2.4512E-04 -1.4033E-04 
       1403      2.4296E-04 -2.2154E-04 
       1404      2.3883E-04 -2.9964E-04 
       1405      2.3357E-04 -3.7112E-04 
       1406      2.2735E-04 -4.3405E-04 
       1407      2.2024E-04 -4.8727E-04 
       1408      2.1239E-04 -5.2970E-04 
       1409      2.0398E-04 -5.6061E-04 
       1410      1.9519E-04 -5.7936E-04 
       1411      1.8621E-04 -5.8567E-04 
       1412      1.7723E-04 -5.7936E-04 
       1413      1.6844E-04 -5.6061E-04 
       1414      1.6003E-04 -5.2970E-04 
       1415      1.5218E-04 -4.8727E-04 
       1416      1.4507E-04 -4.3405E-04 
       1417      1.3885E-04 -3.7112E-04 
       1418      1.3359E-04 -2.9964E-04 
       1419      1.2946E-04 -2.2154E-04 
       1420      1.2730E-04 -1.4033E-04 
       1421      1.2751E-04 -6.2552E-05 
       1501      2.5953E-04 -6.3237E-05 
       1503      2.5708E-04 -2.2147E-04 
       1505      2.4580E-04 -3.7089E-04 
       1507      2.2905E-04 -4.8695E-04 
       1509      2.0857E-04 -5.6021E-04 
       1511      1.8621E-04 -5.8525E-04 
       1513      1.6385E-04 -5.6021E-04 
       1515      1.4337E-04 -4.8695E-04 
       1517      1.2662E-04 -3.7089E-04 
       1519      1.1534E-04 -2.2147E-04 
       1521      1.1289E-04 -6.3237E-05 
       1601      2.7429E-04 -6.3760E-05 
       1602      2.7408E-04 -1.4110E-04 
       1603      2.7136E-04 -2.2141E-04 
       1604      2.6583E-04 -2.9924E-04 
       1605      2.5816E-04 -3.7059E-04 
       1606      2.4876E-04 -4.3341E-04 
       1607      2.3794E-04 -4.8651E-04 
       1608      2.2599E-04 -5.2885E-04 
       1609      2.1320E-04 -5.5968E-04 
       1610      1.9985E-04 -5.7840E-04 
       1611      1.8621E-04 -5.8469E-04 
       1612      1.7257E-04 -5.7840E-04 
       1613      1.5922E-04 -5.5968E-04 
       1614      1.4642E-04 -5.2885E-04 
       1615      1.3447E-04 -4.8651E-04 
       1616      1.2365E-04 -4.3341E-04 
       1617      1.1426E-04 -3.7059E-04 
       1618      1.0659E-04 -2.9924E-04 
       1619      1.0106E-04 -2.2141E-04 
       1620      9.8335E-05 -1.4110E-04 
       1621      9.8122E-05 -6.3760E-05 
       1701      2.8919E-04 -6.4152E-05 
       1703      2.8585E-04 -2.2133E-04 
       1705      2.7068E-04 -3.7022E-04 
       1707      2.4695E-04 -4.8597E-04 
       1709      2.1789E-04 -5.5903E-04 
       1711      1.8621E-04 -5.8401E-04 
       1713      1.5453E-04 -5.5903E-04 
       1715      1.2547E-04 -4.8597E-04 
       1717      1.0173E-04 -3.7022E-04 
       1719      8.6568E-05 -2.2133E-04 
       1721      8.3224E-05 -6.4152E-05 
       1801      3.0424E-04 -6.4449E-05 
       1802      3.0382E-04 -1.4160E-04 
       1803      3.0063E-04 -2.2124E-04 
       1804      2.9363E-04 -2.9871E-04 
       1805      2.8340E-04 -3.6978E-04 
       1806      2.7071E-04 -4.3240E-04 
       1807      2.5607E-04 -4.8532E-04 
       1808      2.3991E-04 -5.2753E-04 
       1809      2.2263E-04 -5.5825E-04 
       1810      2.0461E-04 -5.7692E-04 
       1811      1.8621E-04 -5.8318E-04 
       1812      1.6781E-04 -5.7692E-04 
       1813      1.4978E-04 -5.5825E-04 
       1814      1.3250E-04 -5.2753E-04 
       1815      1.1635E-04 -4.8532E-04 
       1816      1.0170E-04 -4.3240E-04 
       1817      8.9012E-05 -3.6978E-04 
       1818      7.8791E-05 -2.9871E-04 
       1819      7.1789E-05 -2.2124E-04 
       1820      6.8602E-05 -1.4160E-04 
       1821      6.8173E-05 -6.4449E-05 
       1901      3.1939E-04 -6.4615E-05 
       1903      3.1581E-04 -2.2103E-04 
       1905      2.9640E-04 -3.6914E-04 
       1907      2.6535E-04 -4.8443E-04 
       1909      2.2746E-04 -5.5723E-04 
       1911      1.8621E-04 -5.8211E-04 
       1913      1.4496E-04 -5.5723E-04 
       1915      1.0707E-04 -4.8443E-04 
       1917      7.6017E-05 -3.6914E-04 
       1919      5.6608E-05 -2.2103E-04 
       1921      5.3030E-05 -6.4615E-05 
       2001      3.3455E-04 -6.4775E-05 
       2002      3.3452E-04 -1.4168E-04 
       2003      3.3147E-04 -2.2079E-04 
       2004      3.2255E-04 -2.9775E-04 
       2005      3.0964E-04 -3.6841E-04 
       2006      2.9335E-04 -4.3075E-04 
       2007      2.7479E-04 -4.8342E-04 
       2008      2.5423E-04 -5.2548E-04 
       2009      2.3236E-04 -5.5606E-04 
       2010      2.0951E-04 -5.7467E-04 
       2011      1.8621E-04 -5.8089E-04 
       2012      1.6291E-04 -5.7467E-04 
       2013      1.4005E-04 -5.5606E-04 
       2014      1.1818E-04 -5.2548E-04 
       2015      9.7630E-05 -4.8342E-04 
       2016      7.9063E-05 -4.3075E-04 
       2017      6.2779E-05 -3.6841E-04 
       2018      4.9864E-05 -2.9775E-04 
       2019      4.0949E-05 -2.2079E-04 
       2020      3.7896E-05 -1.4168E-04 
       2021      3.7863E-05 -6.4775E-05 

 MAXIMUM         3.7242E-04   0.000    
 AT NODE                21           1

 MINIMUM          0.000     -5.8621E-04
 AT NODE                 1        1111
  
  
  
   THE FOLLOWING TABLE IS PRINTED FOR ALL NODES
  
       NODE FOOT-   RF1         RF2      
            NOTE
  
          1      1.4587E-07  5.0000E+05 
         21       0.000      5.0000E+05 

 MAXIMUM         1.4587E-07  5.0000E+05
 AT NODE                 1           1

 MINIMUM          0.000       0.000    
 AT NODE                 2           2


          THE ANALYSIS HAS BEEN COMPLETED



                              ANALYSIS COMPLETE



     JOB TIME SUMMARY
       USER TIME (SEC)      =  0.18000    
       SYSTEM TIME (SEC)    =  0.10000    
       TOTAL CPU TIME (SEC) =  0.28000    
       WALLCLOCK TIME (SEC) =          0
