1

   Abaqus 6.12-1                                  Date 04-Nov-2016   Time 16:35:50
   For use at  under license from Dassault Systemes or its subsidiary.



                         The Abaqus Software is a product of:

                           Dassault Systemes Simulia Corp.
                                 Rising Sun Mills
                                 166 Valley Street
                           Providence, RI 02909-2499, USA
 


                   Available for internal use at . 
                   The Abaqus Online Support System is accessible
                   through the "My Support" section of the SIMULIA
                   Home Page at http://www.simulia.com.

                   Support policies for academic licenses are described
                   on the SIMULIA web site at
                   http://www.simulia.com/academics/academic_support.html.
 
                          On machine w4069.see.ed.ac.uk 
                          you are authorized to run
                          Abaqus/Standard until 30-Jun-2017

                          Your site id is: 200000000040703 


 
                    For assistance or any other information you may
                    obtain contact information for your local office
                    from the world wide web at:

                      http://www.simulia.com/about/locations.html

 
                * * * * * * * * * * * * * * * * * * * * * * * * * * * * * * 
                *                                                         * 
                *                   *****************                     * 
                *                   *  N O T I C E  *                     * 
                *                   *****************                     * 
                *                                                         * 
                *                                                         * 
                *                    Abaqus 6.12-1                        * 
                *                                                         * 
                *          BUILD ID: 2012_03_13-20.21.46 119612           * 
                *                                                         * 
                *                                                         * 
                *  Please make sure you are using release 6.12 manuals    * 
                *  plus the notes accompanying this release.              * 
                *                                                         * 
                *                                                         * 
                *                                                         * 
                *                                                         * 
                *                                                         * 
                *   This program may not be used for commercial purposes  * 
                *           without payment of a commercial fee.          * 
                *                                                         * 
                * * * * * * * * * * * * * * * * * * * * * * * * * * * * * * 


 



     PROCESSING PART, INSTANCE, AND ASSEMBLY INFORMATION
   *******************************************************


     END PROCESSING PART, INSTANCE, AND ASSEMBLY INFORMATION
   ***********************************************************

1

   Abaqus 6.12-1                                  Date 04-Nov-2016   Time 16:35:50
   For use at  under license from Dassault Systemes or its subsidiary.

                                                                                     

                                             A B A Q U S   I N P U T   E C H O


                        5   10   15   20   25   30   35   40   45   50   55   60   65   70   75   80
                    --------------------------------------------------------------------------------
                    *HEADING
                    5m LONG BY 1m DEEP BY 0.2m THICK SIMPLY SUPPORTED BEAM WITH 100 KN/M DISTRIBUTED LOAD, 20X20 CPS4 MESH, E=200 GPa, V = 0.3      
                    ******************************  
                    *NODE   
     LINE     5     ** DEFINE LOCATION OF CORNER NODES      
                    1, 0.0, 0.0     
                    21, 5.0, 0.0    
                    2001, 0.0, 1.0  
                    2021, 5.0, 1.0  
     LINE    10     ******************************  
                    *NGEN, NSET=BOTTOM      
                    ** GENERATE ELEMENTS ALONG BOTTOM AND ADD NODES TO SET "BOTTOM" 
                    1, 21, 1
                    ******************************  
     LINE    15     ** CREATE NODES ALONG TOP AND ADD NODES TO SET "TOP"    
                    *NGEN, NSET=TOP 
                    2001, 2021, 1   
                    ******************************  
                    ** CREATE NODES BETWEEN "LEFT" AND "RIGHT", 20 NODES BETWEEN ENDS WITH NODE NUMBERING STEP OF 1 
     LINE    20     *NFILL  
                    BOTTOM, TOP, 20, 100    
                    ******************************  
                    **DEFINE THE FIRST "MASTER ELEMENT" NUMBER 1 AS A CPS4 CONSISTING OF NODES 1,2,102 AND 101      
                    *ELEMENT, TYPE=CPS4     
     LINE    25     1, 1, 2, 102, 101       
                    ******************************  
                    ** GENERATE THE REST OF THE ELEMENTS BY COPYING ELEMENT 1, 4 ELEMENTS IN X, 4 ELEMENTS IN Y, NODE NUMBER INCREMENT OF 4 IN X, NODE NUMBER INCREMENT OF 100 IN Y, ELEMENT NUMBER INCREMENT OF 4 FROM ROW TO ROW, ASSIGN ELEMENTS TO SET "EALL"   
                    *ELGEN, ELSET=EALL      
                    1,20,1,1,20,100,20      
     LINE    30     ******************************  
                    ** DEFINE MATERIAL CALLED "STEEL"       
                    *MATERIAL,NAME=STEEL    
                    ******************************  
                    ** DEFINE ELASTIC MATERIAL PROPERTIES, E = 200 GPa AND POISSON'S RATIO 0.3      
     LINE    35     *ELASTIC
                    200E9, 0.3      
                    ******************************  
                    ** CREATE SECTION FROM MATERIAL "STEEL" AND ASSIGN IT TO ELEMENT SET "EALL", THICKNESS IS 0.1M  
                    *SOLID SECTION, MATERIAL=STEEL, ELSET=EALL      
     LINE    40     0.2     
                    ******************************  
                    **ASSIGN ELEMENTS IN TOP ROW TO ELSET "TOP"     
                    *ELSET, ELSET=TOP, GENERATE     
                    381, 400, 1     
     LINE    45     ******************************  
                    **CREATE NODE SET AT L/5 FOR PLOTS      
                    *NSET, NSET=CUT, GENERATE       
                    5, 2005, 100    
                    ******************************  
     LINE    50     **ASK FOR HISTORY AND MODEL DATA TO BE INCLUDED IN RESULTS FILE 
                    *PREPRINT, ECHO=YES, MODEL=YES, HISTORY=YES     
                    ******************************  
                    ** BEGIN LINEAR STEP    
                    *STEP, PERTURBATION     
     LINE    55     ******************************  
                    ** DEFINE STEP AS STATIC
                    *STATIC 
                    ******************************  
                    ** DEFINE FIXED BOUNDARY AT NODE 1 LOCKED IN X AND Y DIRECTION AND AT NODE 21 LOCKED IN Y DIRECTION     
     LINE    60     *BOUNDARY       
                    1, 1, 2 
                    21, 2, 2
                    ******************************  
                    ** DEFINE CONCENTRATED LOAD OF -0.5N IN Y DIRECTION ON EACH END CORNER NODE     
     LINE    65     *DLOAD  
                    TOP, P3, 500E3  
                    ******************************  
                    ** ASK ABAQUS TO PRINT COORDINATE, STRESS AND STRAIN FOR EACH ELEMENT (AT INTEGRATION POINTS INSIDE CELLS)      
                    *EL PRINT       
     LINE    70     COORD   
                    S       
                    E       
                    ******************************  
                    ** ASK ABAQUS TO PRINT STRESS VALUES AT NODES   
     LINE    75     *EL PRINT, POSITION=AVERAGED AT NODES   
                    S       
                    ******************************  
                    ** ASK ABAQUS TO PRINT FORCES AND DISPLACEMENTS AT NODES
                    *NODE PRINT     
     LINE    80     U       
                    RF      
                    ******************************  
                    ** END THE STEP 
                    *END STEP       
                    --------------------------------------------------------------------------------
                        5   10   15   20   25   30   35   40   45   50   55   60   65   70   75   80
                    --------------------------------------------------------------------------------



     OPTIONS BEING PROCESSED
   ***************************


  *HEADING
          5m LONG BY 1m DEEP BY 0.2m THICK SIMPLY SUPPORTED BEAM WITH 100 KN/M DISTRIBUTED LOAD, 20X20 CPS4 MESH, E=200 GPa, V = 0.3                                                                                                                                      
  *NODE
  *NGEN, NSET=BOTTOM
  *NGEN, NSET=TOP
  *NFILL

     THE FOLLOWING NODES WILL BE USED IN THE NFILL GENERATION


          BOUND  1              1         2         3         4         5         6         7         8         9        10
                               11        12        13        14        15        16        17        18        19        20
                               21

          BOUND  2           2001      2002      2003      2004      2005      2006      2007      2008      2009      2010
                             2011      2012      2013      2014      2015      2016      2017      2018      2019      2020
                             2021
  *ELEMENT, TYPE=CPS4
  *ELGEN, ELSET=EALL
  *ELSET, ELSET=TOP, GENERATE
  *NSET, NSET=CUT, GENERATE
  *MATERIAL,NAME=STEEL
  *ELASTIC
  *SOLID SECTION, MATERIAL=STEEL, ELSET=EALL
  *BOUNDARY
  *SOLID SECTION, MATERIAL=STEEL, ELSET=EALL
  *STEP, PERTURBATION
  *STEP, PERTURBATION
  *STEP, PERTURBATION
  *STATIC
  *BOUNDARY
  *DLOAD
  *EL PRINT
  *EL PRINT, POSITION=AVERAGED AT NODES
  *NODE PRINT
  *END STEP
  *STEP, PERTURBATION
  *STATIC
  *BOUNDARY
  *END STEP
1

   Abaqus 6.12-1                                  Date 04-Nov-2016   Time 16:35:51
   For use at  under license from Dassault Systemes or its subsidiary.

     5m LONG BY 1m DEEP BY 0.2m THICK SIMPLY SUPPORTED BEAM WITH 100 KN/M DISTRIBUTED


                              E L E M E N T   D E F I N I T I O N S

       NUMBER   TYPE    PROPERTY    NODES FORMING ELEMENT
                        REFERENCE

          1   CPS4          1          1         2       102       101
          2   CPS4          1          2         3       103       102
          3   CPS4          1          3         4       104       103
          4   CPS4          1          4         5       105       104
          5   CPS4          1          5         6       106       105
          6   CPS4          1          6         7       107       106
          7   CPS4          1          7         8       108       107
          8   CPS4          1          8         9       109       108
          9   CPS4          1          9        10       110       109
         10   CPS4          1         10        11       111       110
         11   CPS4          1         11        12       112       111
         12   CPS4          1         12        13       113       112
         13   CPS4          1         13        14       114       113
         14   CPS4          1         14        15       115       114
         15   CPS4          1         15        16       116       115
         16   CPS4          1         16        17       117       116
         17   CPS4          1         17        18       118       117
         18   CPS4          1         18        19       119       118
         19   CPS4          1         19        20       120       119
         20   CPS4          1         20        21       121       120
         21   CPS4          1        101       102       202       201
         22   CPS4          1        102       103       203       202
         23   CPS4          1        103       104       204       203
         24   CPS4          1        104       105       205       204
         25   CPS4          1        105       106       206       205
         26   CPS4          1        106       107       207       206
         27   CPS4          1        107       108       208       207
         28   CPS4          1        108       109       209       208
         29   CPS4          1        109       110       210       209
         30   CPS4          1        110       111       211       210
         31   CPS4          1        111       112       212       211
         32   CPS4          1        112       113       213       212
         33   CPS4          1        113       114       214       213
         34   CPS4          1        114       115       215       214
         35   CPS4          1        115       116       216       215
         36   CPS4          1        116       117       217       216
         37   CPS4          1        117       118       218       217
         38   CPS4          1        118       119       219       218
         39   CPS4          1        119       120       220       219
         40   CPS4          1        120       121       221       220
         41   CPS4          1        201       202       302       301
         42   CPS4          1        202       203       303       302
         43   CPS4          1        203       204       304       303
         44   CPS4          1        204       205       305       304
         45   CPS4          1        205       206       306       305
         46   CPS4          1        206       207       307       306
         47   CPS4          1        207       208       308       307
         48   CPS4          1        208       209       309       308
         49   CPS4          1        209       210       310       309
         50   CPS4          1        210       211       311       310
         51   CPS4          1        211       212       312       311
         52   CPS4          1        212       213       313       312
         53   CPS4          1        213       214       314       313
         54   CPS4          1        214       215       315       314
         55   CPS4          1        215       216       316       315
         56   CPS4          1        216       217       317       316
         57   CPS4          1        217       218       318       317
         58   CPS4          1        218       219       319       318
         59   CPS4          1        219       220       320       319
         60   CPS4          1        220       221       321       320
         61   CPS4          1        301       302       402       401
         62   CPS4          1        302       303       403       402
         63   CPS4          1        303       304       404       403
         64   CPS4          1        304       305       405       404
         65   CPS4          1        305       306       406       405
         66   CPS4          1        306       307       407       406
         67   CPS4          1        307       308       408       407
         68   CPS4          1        308       309       409       408
         69   CPS4          1        309       310       410       409
         70   CPS4          1        310       311       411       410
         71   CPS4          1        311       312       412       411
         72   CPS4          1        312       313       413       412
         73   CPS4          1        313       314       414       413
         74   CPS4          1        314       315       415       414
         75   CPS4          1        315       316       416       415
         76   CPS4          1        316       317       417       416
         77   CPS4          1        317       318       418       417
         78   CPS4          1        318       319       419       418
         79   CPS4          1        319       320       420       419
         80   CPS4          1        320       321       421       420
         81   CPS4          1        401       402       502       501
         82   CPS4          1        402       403       503       502
         83   CPS4          1        403       404       504       503
         84   CPS4          1        404       405       505       504
         85   CPS4          1        405       406       506       505
         86   CPS4          1        406       407       507       506
         87   CPS4          1        407       408       508       507
         88   CPS4          1        408       409       509       508
         89   CPS4          1        409       410       510       509
         90   CPS4          1        410       411       511       510
         91   CPS4          1        411       412       512       511
         92   CPS4          1        412       413       513       512
         93   CPS4          1        413       414       514       513
         94   CPS4          1        414       415       515       514
         95   CPS4          1        415       416       516       515
         96   CPS4          1        416       417       517       516
         97   CPS4          1        417       418       518       517
         98   CPS4          1        418       419       519       518
         99   CPS4          1        419       420       520       519
        100   CPS4          1        420       421       521       520
        101   CPS4          1        501       502       602       601
        102   CPS4          1        502       503       603       602
        103   CPS4          1        503       504       604       603
        104   CPS4          1        504       505       605       604
        105   CPS4          1        505       506       606       605
        106   CPS4          1        506       507       607       606
        107   CPS4          1        507       508       608       607
        108   CPS4          1        508       509       609       608
        109   CPS4          1        509       510       610       609
        110   CPS4          1        510       511       611       610
        111   CPS4          1        511       512       612       611
        112   CPS4          1        512       513       613       612
        113   CPS4          1        513       514       614       613
        114   CPS4          1        514       515       615       614
        115   CPS4          1        515       516       616       615
        116   CPS4          1        516       517       617       616
        117   CPS4          1        517       518       618       617
        118   CPS4          1        518       519       619       618
        119   CPS4          1        519       520       620       619
        120   CPS4          1        520       521       621       620
        121   CPS4          1        601       602       702       701
        122   CPS4          1        602       603       703       702
        123   CPS4          1        603       604       704       703
        124   CPS4          1        604       605       705       704
        125   CPS4          1        605       606       706       705
        126   CPS4          1        606       607       707       706
        127   CPS4          1        607       608       708       707
        128   CPS4          1        608       609       709       708
        129   CPS4          1        609       610       710       709
        130   CPS4          1        610       611       711       710
        131   CPS4          1        611       612       712       711
        132   CPS4          1        612       613       713       712
        133   CPS4          1        613       614       714       713
        134   CPS4          1        614       615       715       714
        135   CPS4          1        615       616       716       715
        136   CPS4          1        616       617       717       716
        137   CPS4          1        617       618       718       717
        138   CPS4          1        618       619       719       718
        139   CPS4          1        619       620       720       719
        140   CPS4          1        620       621       721       720
        141   CPS4          1        701       702       802       801
        142   CPS4          1        702       703       803       802
        143   CPS4          1        703       704       804       803
        144   CPS4          1        704       705       805       804
        145   CPS4          1        705       706       806       805
        146   CPS4          1        706       707       807       806
        147   CPS4          1        707       708       808       807
        148   CPS4          1        708       709       809       808
        149   CPS4          1        709       710       810       809
        150   CPS4          1        710       711       811       810
        151   CPS4          1        711       712       812       811
        152   CPS4          1        712       713       813       812
        153   CPS4          1        713       714       814       813
        154   CPS4          1        714       715       815       814
        155   CPS4          1        715       716       816       815
        156   CPS4          1        716       717       817       816
        157   CPS4          1        717       718       818       817
        158   CPS4          1        718       719       819       818
        159   CPS4          1        719       720       820       819
        160   CPS4          1        720       721       821       820
        161   CPS4          1        801       802       902       901
        162   CPS4          1        802       803       903       902
        163   CPS4          1        803       804       904       903
        164   CPS4          1        804       805       905       904
        165   CPS4          1        805       806       906       905
        166   CPS4          1        806       807       907       906
        167   CPS4          1        807       808       908       907
        168   CPS4          1        808       809       909       908
        169   CPS4          1        809       810       910       909
        170   CPS4          1        810       811       911       910
        171   CPS4          1        811       812       912       911
        172   CPS4          1        812       813       913       912
        173   CPS4          1        813       814       914       913
        174   CPS4          1        814       815       915       914
        175   CPS4          1        815       816       916       915
        176   CPS4          1        816       817       917       916
        177   CPS4          1        817       818       918       917
        178   CPS4          1        818       819       919       918
        179   CPS4          1        819       820       920       919
        180   CPS4          1        820       821       921       920
        181   CPS4          1        901       902      1002      1001
        182   CPS4          1        902       903      1003      1002
        183   CPS4          1        903       904      1004      1003
        184   CPS4          1        904       905      1005      1004
        185   CPS4          1        905       906      1006      1005
        186   CPS4          1        906       907      1007      1006
        187   CPS4          1        907       908      1008      1007
        188   CPS4          1        908       909      1009      1008
        189   CPS4          1        909       910      1010      1009
        190   CPS4          1        910       911      1011      1010
        191   CPS4          1        911       912      1012      1011
        192   CPS4          1        912       913      1013      1012
        193   CPS4          1        913       914      1014      1013
        194   CPS4          1        914       915      1015      1014
        195   CPS4          1        915       916      1016      1015
        196   CPS4          1        916       917      1017      1016
        197   CPS4          1        917       918      1018      1017
        198   CPS4          1        918       919      1019      1018
        199   CPS4          1        919       920      1020      1019
        200   CPS4          1        920       921      1021      1020
        201   CPS4          1       1001      1002      1102      1101
        202   CPS4          1       1002      1003      1103      1102
        203   CPS4          1       1003      1004      1104      1103
        204   CPS4          1       1004      1005      1105      1104
        205   CPS4          1       1005      1006      1106      1105
        206   CPS4          1       1006      1007      1107      1106
        207   CPS4          1       1007      1008      1108      1107
        208   CPS4          1       1008      1009      1109      1108
        209   CPS4          1       1009      1010      1110      1109
        210   CPS4          1       1010      1011      1111      1110
        211   CPS4          1       1011      1012      1112      1111
        212   CPS4          1       1012      1013      1113      1112
        213   CPS4          1       1013      1014      1114      1113
        214   CPS4          1       1014      1015      1115      1114
        215   CPS4          1       1015      1016      1116      1115
        216   CPS4          1       1016      1017      1117      1116
        217   CPS4          1       1017      1018      1118      1117
        218   CPS4          1       1018      1019      1119      1118
        219   CPS4          1       1019      1020      1120      1119
        220   CPS4          1       1020      1021      1121      1120
        221   CPS4          1       1101      1102      1202      1201
        222   CPS4          1       1102      1103      1203      1202
        223   CPS4          1       1103      1104      1204      1203
        224   CPS4          1       1104      1105      1205      1204
        225   CPS4          1       1105      1106      1206      1205
        226   CPS4          1       1106      1107      1207      1206
        227   CPS4          1       1107      1108      1208      1207
        228   CPS4          1       1108      1109      1209      1208
        229   CPS4          1       1109      1110      1210      1209
        230   CPS4          1       1110      1111      1211      1210
        231   CPS4          1       1111      1112      1212      1211
        232   CPS4          1       1112      1113      1213      1212
        233   CPS4          1       1113      1114      1214      1213
        234   CPS4          1       1114      1115      1215      1214
        235   CPS4          1       1115      1116      1216      1215
        236   CPS4          1       1116      1117      1217      1216
        237   CPS4          1       1117      1118      1218      1217
        238   CPS4          1       1118      1119      1219      1218
        239   CPS4          1       1119      1120      1220      1219
        240   CPS4          1       1120      1121      1221      1220
        241   CPS4          1       1201      1202      1302      1301
        242   CPS4          1       1202      1203      1303      1302
        243   CPS4          1       1203      1204      1304      1303
        244   CPS4          1       1204      1205      1305      1304
        245   CPS4          1       1205      1206      1306      1305
        246   CPS4          1       1206      1207      1307      1306
        247   CPS4          1       1207      1208      1308      1307
        248   CPS4          1       1208      1209      1309      1308
        249   CPS4          1       1209      1210      1310      1309
        250   CPS4          1       1210      1211      1311      1310
        251   CPS4          1       1211      1212      1312      1311
        252   CPS4          1       1212      1213      1313      1312
        253   CPS4          1       1213      1214      1314      1313
        254   CPS4          1       1214      1215      1315      1314
        255   CPS4          1       1215      1216      1316      1315
        256   CPS4          1       1216      1217      1317      1316
        257   CPS4          1       1217      1218      1318      1317
        258   CPS4          1       1218      1219      1319      1318
        259   CPS4          1       1219      1220      1320      1319
        260   CPS4          1       1220      1221      1321      1320
        261   CPS4          1       1301      1302      1402      1401
        262   CPS4          1       1302      1303      1403      1402
        263   CPS4          1       1303      1304      1404      1403
        264   CPS4          1       1304      1305      1405      1404
        265   CPS4          1       1305      1306      1406      1405
        266   CPS4          1       1306      1307      1407      1406
        267   CPS4          1       1307      1308      1408      1407
        268   CPS4          1       1308      1309      1409      1408
        269   CPS4          1       1309      1310      1410      1409
        270   CPS4          1       1310      1311      1411      1410
        271   CPS4          1       1311      1312      1412      1411
        272   CPS4          1       1312      1313      1413      1412
        273   CPS4          1       1313      1314      1414      1413
        274   CPS4          1       1314      1315      1415      1414
        275   CPS4          1       1315      1316      1416      1415
        276   CPS4          1       1316      1317      1417      1416
        277   CPS4          1       1317      1318      1418      1417
        278   CPS4          1       1318      1319      1419      1418
        279   CPS4          1       1319      1320      1420      1419
        280   CPS4          1       1320      1321      1421      1420
        281   CPS4          1       1401      1402      1502      1501
        282   CPS4          1       1402      1403      1503      1502
        283   CPS4          1       1403      1404      1504      1503
        284   CPS4          1       1404      1405      1505      1504
        285   CPS4          1       1405      1406      1506      1505
        286   CPS4          1       1406      1407      1507      1506
        287   CPS4          1       1407      1408      1508      1507
        288   CPS4          1       1408      1409      1509      1508
        289   CPS4          1       1409      1410      1510      1509
        290   CPS4          1       1410      1411      1511      1510
        291   CPS4          1       1411      1412      1512      1511
        292   CPS4          1       1412      1413      1513      1512
        293   CPS4          1       1413      1414      1514      1513
        294   CPS4          1       1414      1415      1515      1514
        295   CPS4          1       1415      1416      1516      1515
        296   CPS4          1       1416      1417      1517      1516
        297   CPS4          1       1417      1418      1518      1517
        298   CPS4          1       1418      1419      1519      1518
        299   CPS4          1       1419      1420      1520      1519
        300   CPS4          1       1420      1421      1521      1520
        301   CPS4          1       1501      1502      1602      1601
        302   CPS4          1       1502      1503      1603      1602
        303   CPS4          1       1503      1504      1604      1603
        304   CPS4          1       1504      1505      1605      1604
        305   CPS4          1       1505      1506      1606      1605
        306   CPS4          1       1506      1507      1607      1606
        307   CPS4          1       1507      1508      1608      1607
        308   CPS4          1       1508      1509      1609      1608
        309   CPS4          1       1509      1510      1610      1609
        310   CPS4          1       1510      1511      1611      1610
        311   CPS4          1       1511      1512      1612      1611
        312   CPS4          1       1512      1513      1613      1612
        313   CPS4          1       1513      1514      1614      1613
        314   CPS4          1       1514      1515      1615      1614
        315   CPS4          1       1515      1516      1616      1615
        316   CPS4          1       1516      1517      1617      1616
        317   CPS4          1       1517      1518      1618      1617
        318   CPS4          1       1518      1519      1619      1618
        319   CPS4          1       1519      1520      1620      1619
        320   CPS4          1       1520      1521      1621      1620
        321   CPS4          1       1601      1602      1702      1701
        322   CPS4          1       1602      1603      1703      1702
        323   CPS4          1       1603      1604      1704      1703
        324   CPS4          1       1604      1605      1705      1704
        325   CPS4          1       1605      1606      1706      1705
        326   CPS4          1       1606      1607      1707      1706
        327   CPS4          1       1607      1608      1708      1707
        328   CPS4          1       1608      1609      1709      1708
        329   CPS4          1       1609      1610      1710      1709
        330   CPS4          1       1610      1611      1711      1710
        331   CPS4          1       1611      1612      1712      1711
        332   CPS4          1       1612      1613      1713      1712
        333   CPS4          1       1613      1614      1714      1713
        334   CPS4          1       1614      1615      1715      1714
        335   CPS4          1       1615      1616      1716      1715
        336   CPS4          1       1616      1617      1717      1716
        337   CPS4          1       1617      1618      1718      1717
        338   CPS4          1       1618      1619      1719      1718
        339   CPS4          1       1619      1620      1720      1719
        340   CPS4          1       1620      1621      1721      1720
        341   CPS4          1       1701      1702      1802      1801
        342   CPS4          1       1702      1703      1803      1802
        343   CPS4          1       1703      1704      1804      1803
        344   CPS4          1       1704      1705      1805      1804
        345   CPS4          1       1705      1706      1806      1805
        346   CPS4          1       1706      1707      1807      1806
        347   CPS4          1       1707      1708      1808      1807
        348   CPS4          1       1708      1709      1809      1808
        349   CPS4          1       1709      1710      1810      1809
        350   CPS4          1       1710      1711      1811      1810
        351   CPS4          1       1711      1712      1812      1811
        352   CPS4          1       1712      1713      1813      1812
        353   CPS4          1       1713      1714      1814      1813
        354   CPS4          1       1714      1715      1815      1814
        355   CPS4          1       1715      1716      1816      1815
        356   CPS4          1       1716      1717      1817      1816
        357   CPS4          1       1717      1718      1818      1817
        358   CPS4          1       1718      1719      1819      1818
        359   CPS4          1       1719      1720      1820      1819
        360   CPS4          1       1720      1721      1821      1820
        361   CPS4          1       1801      1802      1902      1901
        362   CPS4          1       1802      1803      1903      1902
        363   CPS4          1       1803      1804      1904      1903
        364   CPS4          1       1804      1805      1905      1904
        365   CPS4          1       1805      1806      1906      1905
        366   CPS4          1       1806      1807      1907      1906
        367   CPS4          1       1807      1808      1908      1907
        368   CPS4          1       1808      1809      1909      1908
        369   CPS4          1       1809      1810      1910      1909
        370   CPS4          1       1810      1811      1911      1910
        371   CPS4          1       1811      1812      1912      1911
        372   CPS4          1       1812      1813      1913      1912
        373   CPS4          1       1813      1814      1914      1913
        374   CPS4          1       1814      1815      1915      1914
        375   CPS4          1       1815      1816      1916      1915
        376   CPS4          1       1816      1817      1917      1916
        377   CPS4          1       1817      1818      1918      1917
        378   CPS4          1       1818      1819      1919      1918
        379   CPS4          1       1819      1820      1920      1919
        380   CPS4          1       1820      1821      1921      1920
        381   CPS4          1       1901      1902      2002      2001
        382   CPS4          1       1902      1903      2003      2002
        383   CPS4          1       1903      1904      2004      2003
        384   CPS4          1       1904      1905      2005      2004
        385   CPS4          1       1905      1906      2006      2005
        386   CPS4          1       1906      1907      2007      2006
        387   CPS4          1       1907      1908      2008      2007
        388   CPS4          1       1908      1909      2009      2008
        389   CPS4          1       1909      1910      2010      2009
        390   CPS4          1       1910      1911      2011      2010
        391   CPS4          1       1911      1912      2012      2011
        392   CPS4          1       1912      1913      2013      2012
        393   CPS4          1       1913      1914      2014      2013
        394   CPS4          1       1914      1915      2015      2014
        395   CPS4          1       1915      1916      2016      2015
        396   CPS4          1       1916      1917      2017      2016
        397   CPS4          1       1917      1918      2018      2017
        398   CPS4          1       1918      1919      2019      2018
        399   CPS4          1       1919      1920      2020      2019
        400   CPS4          1       1920      1921      2021      2020





                                S O L I D   S E C T I O N (S)




  PROPERTY NUMBER         1

     MATERIAL NAME                     STEEL                                                                           
     ATTRIBUTES                         0.20000       0.0000       0.0000    

     HOURGLASS CONTROL STIFFNESS    3.84615E+08

     (USED WITH LOWER ORDER REDUCED INTEGRATED SOLID ELEMENTS LIKE CPS4R,CPE4RH,C3D8R)





                         P H Y S I C A L   C O N S T A N T S






                         M A T E R I A L   D E S C R I P T I O N




  MATERIAL NAME: STEEL                                                                           


     ELASTIC         YOUNG'S    POISSON'S
                     MODULUS      RATIO

                    2.00000E+11 0.30000    





                                 E L E M E N T   S E T S


  SET    EALL                                                                            
  MEMBERS                    1         2         3         4         5         6         7         8         9        10        11        12
                            13        14        15        16        17        18        19        20        21        22        23        24
                            25        26        27        28        29        30        31        32        33        34        35        36
                            37        38        39        40        41        42        43        44        45        46        47        48
                            49        50        51        52        53        54        55        56        57        58        59        60
                            61        62        63        64        65        66        67        68        69        70        71        72
                            73        74        75        76        77        78        79        80        81        82        83        84
                            85        86        87        88        89        90        91        92        93        94        95        96
                            97        98        99       100       101       102       103       104       105       106       107       108
                           109       110       111       112       113       114       115       116       117       118       119       120
                           121       122       123       124       125       126       127       128       129       130       131       132
                           133       134       135       136       137       138       139       140       141       142       143       144
                           145       146       147       148       149       150       151       152       153       154       155       156
                           157       158       159       160       161       162       163       164       165       166       167       168
                           169       170       171       172       173       174       175       176       177       178       179       180
                           181       182       183       184       185       186       187       188       189       190       191       192
                           193       194       195       196       197       198       199       200       201       202       203       204
                           205       206       207       208       209       210       211       212       213       214       215       216
                           217       218       219       220       221       222       223       224       225       226       227       228
                           229       230       231       232       233       234       235       236       237       238       239       240
                           241       242       243       244       245       246       247       248       249       250       251       252
                           253       254       255       256       257       258       259       260       261       262       263       264
                           265       266       267       268       269       270       271       272       273       274       275       276
                           277       278       279       280       281       282       283       284       285       286       287       288
                           289       290       291       292       293       294       295       296       297       298       299       300
                           301       302       303       304       305       306       307       308       309       310       311       312
                           313       314       315       316       317       318       319       320       321       322       323       324
                           325       326       327       328       329       330       331       332       333       334       335       336
                           337       338       339       340       341       342       343       344       345       346       347       348
                           349       350       351       352       353       354       355       356       357       358       359       360
                           361       362       363       364       365       366       367       368       369       370       371       372
                           373       374       375       376       377       378       379       380       381       382       383       384
                           385       386       387       388       389       390       391       392       393       394       395       396
                           397       398       399       400

  SET    TOP                                                                             
  MEMBERS                  381       382       383       384       385       386       387       388       389       390       391       392
                           393       394       395       396       397       398       399       400



                                    N O D E   S E T S


  SET    CUT                                                                             
  MEMBERS                    5       105       205       305       405       505       605       705       805       905      1005      1105
                          1205      1305      1405      1505      1605      1705      1805      1905      2005

  SET    BOTTOM                                                                          
  MEMBERS                    1         2         3         4         5         6         7         8         9        10        11        12
                            13        14        15        16        17        18        19        20        21

  SET    TOP                                                                             
  MEMBERS                 2001      2002      2003      2004      2005      2006      2007      2008      2009      2010      2011      2012
                          2013      2014      2015      2016      2017      2018      2019      2020      2021





                                 N O D E   D E F I N I T I O N S

       NODE           COORDINATES                       SINGLE POINT CONSTRAINTS 
      NUMBER                                              TYPE    PLUS    DOF

          1     0.0000       0.0000       0.0000                  1 2                                                  
          2    0.25000       0.0000       0.0000                                                                       
          3    0.50000       0.0000       0.0000                                                                       
          4    0.75000       0.0000       0.0000                                                                       
          5     1.0000       0.0000       0.0000                                                                       
          6     1.2500       0.0000       0.0000                                                                       
          7     1.5000       0.0000       0.0000                                                                       
          8     1.7500       0.0000       0.0000                                                                       
          9     2.0000       0.0000       0.0000                                                                       
         10     2.2500       0.0000       0.0000                                                                       
         11     2.5000       0.0000       0.0000                                                                       
         12     2.7500       0.0000       0.0000                                                                       
         13     3.0000       0.0000       0.0000                                                                       
         14     3.2500       0.0000       0.0000                                                                       
         15     3.5000       0.0000       0.0000                                                                       
         16     3.7500       0.0000       0.0000                                                                       
         17     4.0000       0.0000       0.0000                                                                       
         18     4.2500       0.0000       0.0000                                                                       
         19     4.5000       0.0000       0.0000                                                                       
         20     4.7500       0.0000       0.0000                                                                       
         21     5.0000       0.0000       0.0000                    2                                                  
        101     0.0000      5.00000E-02   0.0000                                                                       
        102    0.25000      5.00000E-02   0.0000                                                                       
        103    0.50000      5.00000E-02   0.0000                                                                       
        104    0.75000      5.00000E-02   0.0000                                                                       
        105     1.0000      5.00000E-02   0.0000                                                                       
        106     1.2500      5.00000E-02   0.0000                                                                       
        107     1.5000      5.00000E-02   0.0000                                                                       
        108     1.7500      5.00000E-02   0.0000                                                                       
        109     2.0000      5.00000E-02   0.0000                                                                       
        110     2.2500      5.00000E-02   0.0000                                                                       
        111     2.5000      5.00000E-02   0.0000                                                                       
        112     2.7500      5.00000E-02   0.0000                                                                       
        113     3.0000      5.00000E-02   0.0000                                                                       
        114     3.2500      5.00000E-02   0.0000                                                                       
        115     3.5000      5.00000E-02   0.0000                                                                       
        116     3.7500      5.00000E-02   0.0000                                                                       
        117     4.0000      5.00000E-02   0.0000                                                                       
        118     4.2500      5.00000E-02   0.0000                                                                       
        119     4.5000      5.00000E-02   0.0000                                                                       
        120     4.7500      5.00000E-02   0.0000                                                                       
        121     5.0000      5.00000E-02   0.0000                                                                       
        201     0.0000      0.10000       0.0000                                                                       
        202    0.25000      0.10000       0.0000                                                                       
        203    0.50000      0.10000       0.0000                                                                       
        204    0.75000      0.10000       0.0000                                                                       
        205     1.0000      0.10000       0.0000                                                                       
        206     1.2500      0.10000       0.0000                                                                       
        207     1.5000      0.10000       0.0000                                                                       
        208     1.7500      0.10000       0.0000                                                                       
        209     2.0000      0.10000       0.0000                                                                       
        210     2.2500      0.10000       0.0000                                                                       
        211     2.5000      0.10000       0.0000                                                                       
        212     2.7500      0.10000       0.0000                                                                       
        213     3.0000      0.10000       0.0000                                                                       
        214     3.2500      0.10000       0.0000                                                                       
        215     3.5000      0.10000       0.0000                                                                       
        216     3.7500      0.10000       0.0000                                                                       
        217     4.0000      0.10000       0.0000                                                                       
        218     4.2500      0.10000       0.0000                                                                       
        219     4.5000      0.10000       0.0000                                                                       
        220     4.7500      0.10000       0.0000                                                                       
        221     5.0000      0.10000       0.0000                                                                       
        301     0.0000      0.15000       0.0000                                                                       
        302    0.25000      0.15000       0.0000                                                                       
        303    0.50000      0.15000       0.0000                                                                       
        304    0.75000      0.15000       0.0000                                                                       
        305     1.0000      0.15000       0.0000                                                                       
        306     1.2500      0.15000       0.0000                                                                       
        307     1.5000      0.15000       0.0000                                                                       
        308     1.7500      0.15000       0.0000                                                                       
        309     2.0000      0.15000       0.0000                                                                       
        310     2.2500      0.15000       0.0000                                                                       
        311     2.5000      0.15000       0.0000                                                                       
        312     2.7500      0.15000       0.0000                                                                       
        313     3.0000      0.15000       0.0000                                                                       
        314     3.2500      0.15000       0.0000                                                                       
        315     3.5000      0.15000       0.0000                                                                       
        316     3.7500      0.15000       0.0000                                                                       
        317     4.0000      0.15000       0.0000                                                                       
        318     4.2500      0.15000       0.0000                                                                       
        319     4.5000      0.15000       0.0000                                                                       
        320     4.7500      0.15000       0.0000                                                                       
        321     5.0000      0.15000       0.0000                                                                       
        401     0.0000      0.20000       0.0000                                                                       
        402    0.25000      0.20000       0.0000                                                                       
        403    0.50000      0.20000       0.0000                                                                       
        404    0.75000      0.20000       0.0000                                                                       
        405     1.0000      0.20000       0.0000                                                                       
        406     1.2500      0.20000       0.0000                                                                       
        407     1.5000      0.20000       0.0000                                                                       
        408     1.7500      0.20000       0.0000                                                                       
        409     2.0000      0.20000       0.0000                                                                       
        410     2.2500      0.20000       0.0000                                                                       
        411     2.5000      0.20000       0.0000                                                                       
        412     2.7500      0.20000       0.0000                                                                       
        413     3.0000      0.20000       0.0000                                                                       
        414     3.2500      0.20000       0.0000                                                                       
        415     3.5000      0.20000       0.0000                                                                       
        416     3.7500      0.20000       0.0000                                                                       
        417     4.0000      0.20000       0.0000                                                                       
        418     4.2500      0.20000       0.0000                                                                       
        419     4.5000      0.20000       0.0000                                                                       
        420     4.7500      0.20000       0.0000                                                                       
        421     5.0000      0.20000       0.0000                                                                       
        501     0.0000      0.25000       0.0000                                                                       
        502    0.25000      0.25000       0.0000                                                                       
        503    0.50000      0.25000       0.0000                                                                       
        504    0.75000      0.25000       0.0000                                                                       
        505     1.0000      0.25000       0.0000                                                                       
        506     1.2500      0.25000       0.0000                                                                       
        507     1.5000      0.25000       0.0000                                                                       
        508     1.7500      0.25000       0.0000                                                                       
        509     2.0000      0.25000       0.0000                                                                       
        510     2.2500      0.25000       0.0000                                                                       
        511     2.5000      0.25000       0.0000                                                                       
        512     2.7500      0.25000       0.0000                                                                       
        513     3.0000      0.25000       0.0000                                                                       
        514     3.2500      0.25000       0.0000                                                                       
        515     3.5000      0.25000       0.0000                                                                       
        516     3.7500      0.25000       0.0000                                                                       
        517     4.0000      0.25000       0.0000                                                                       
        518     4.2500      0.25000       0.0000                                                                       
        519     4.5000      0.25000       0.0000                                                                       
        520     4.7500      0.25000       0.0000                                                                       
        521     5.0000      0.25000       0.0000                                                                       
        601     0.0000      0.30000       0.0000                                                                       
        602    0.25000      0.30000       0.0000                                                                       
        603    0.50000      0.30000       0.0000                                                                       
        604    0.75000      0.30000       0.0000                                                                       
        605     1.0000      0.30000       0.0000                                                                       
        606     1.2500      0.30000       0.0000                                                                       
        607     1.5000      0.30000       0.0000                                                                       
        608     1.7500      0.30000       0.0000                                                                       
        609     2.0000      0.30000       0.0000                                                                       
        610     2.2500      0.30000       0.0000                                                                       
        611     2.5000      0.30000       0.0000                                                                       
        612     2.7500      0.30000       0.0000                                                                       
        613     3.0000      0.30000       0.0000                                                                       
        614     3.2500      0.30000       0.0000                                                                       
        615     3.5000      0.30000       0.0000                                                                       
        616     3.7500      0.30000       0.0000                                                                       
        617     4.0000      0.30000       0.0000                                                                       
        618     4.2500      0.30000       0.0000                                                                       
        619     4.5000      0.30000       0.0000                                                                       
        620     4.7500      0.30000       0.0000                                                                       
        621     5.0000      0.30000       0.0000                                                                       
        701     0.0000      0.35000       0.0000                                                                       
        702    0.25000      0.35000       0.0000                                                                       
        703    0.50000      0.35000       0.0000                                                                       
        704    0.75000      0.35000       0.0000                                                                       
        705     1.0000      0.35000       0.0000                                                                       
        706     1.2500      0.35000       0.0000                                                                       
        707     1.5000      0.35000       0.0000                                                                       
        708     1.7500      0.35000       0.0000                                                                       
        709     2.0000      0.35000       0.0000                                                                       
        710     2.2500      0.35000       0.0000                                                                       
        711     2.5000      0.35000       0.0000                                                                       
        712     2.7500      0.35000       0.0000                                                                       
        713     3.0000      0.35000       0.0000                                                                       
        714     3.2500      0.35000       0.0000                                                                       
        715     3.5000      0.35000       0.0000                                                                       
        716     3.7500      0.35000       0.0000                                                                       
        717     4.0000      0.35000       0.0000                                                                       
        718     4.2500      0.35000       0.0000                                                                       
        719     4.5000      0.35000       0.0000                                                                       
        720     4.7500      0.35000       0.0000                                                                       
        721     5.0000      0.35000       0.0000                                                                       
        801     0.0000      0.40000       0.0000                                                                       
        802    0.25000      0.40000       0.0000                                                                       
        803    0.50000      0.40000       0.0000                                                                       
        804    0.75000      0.40000       0.0000                                                                       
        805     1.0000      0.40000       0.0000                                                                       
        806     1.2500      0.40000       0.0000                                                                       
        807     1.5000      0.40000       0.0000                                                                       
        808     1.7500      0.40000       0.0000                                                                       
        809     2.0000      0.40000       0.0000                                                                       
        810     2.2500      0.40000       0.0000                                                                       
        811     2.5000      0.40000       0.0000                                                                       
        812     2.7500      0.40000       0.0000                                                                       
        813     3.0000      0.40000       0.0000                                                                       
        814     3.2500      0.40000       0.0000                                                                       
        815     3.5000      0.40000       0.0000                                                                       
        816     3.7500      0.40000       0.0000                                                                       
        817     4.0000      0.40000       0.0000                                                                       
        818     4.2500      0.40000       0.0000                                                                       
        819     4.5000      0.40000       0.0000                                                                       
        820     4.7500      0.40000       0.0000                                                                       
        821     5.0000      0.40000       0.0000                                                                       
        901     0.0000      0.45000       0.0000                                                                       
        902    0.25000      0.45000       0.0000                                                                       
        903    0.50000      0.45000       0.0000                                                                       
        904    0.75000      0.45000       0.0000                                                                       
        905     1.0000      0.45000       0.0000                                                                       
        906     1.2500      0.45000       0.0000                                                                       
        907     1.5000      0.45000       0.0000                                                                       
        908     1.7500      0.45000       0.0000                                                                       
        909     2.0000      0.45000       0.0000                                                                       
        910     2.2500      0.45000       0.0000                                                                       
        911     2.5000      0.45000       0.0000                                                                       
        912     2.7500      0.45000       0.0000                                                                       
        913     3.0000      0.45000       0.0000                                                                       
        914     3.2500      0.45000       0.0000                                                                       
        915     3.5000      0.45000       0.0000                                                                       
        916     3.7500      0.45000       0.0000                                                                       
        917     4.0000      0.45000       0.0000                                                                       
        918     4.2500      0.45000       0.0000                                                                       
        919     4.5000      0.45000       0.0000                                                                       
        920     4.7500      0.45000       0.0000                                                                       
        921     5.0000      0.45000       0.0000                                                                       
       1001     0.0000      0.50000       0.0000                                                                       
       1002    0.25000      0.50000       0.0000                                                                       
       1003    0.50000      0.50000       0.0000                                                                       
       1004    0.75000      0.50000       0.0000                                                                       
       1005     1.0000      0.50000       0.0000                                                                       
       1006     1.2500      0.50000       0.0000                                                                       
       1007     1.5000      0.50000       0.0000                                                                       
       1008     1.7500      0.50000       0.0000                                                                       
       1009     2.0000      0.50000       0.0000                                                                       
       1010     2.2500      0.50000       0.0000                                                                       
       1011     2.5000      0.50000       0.0000                                                                       
       1012     2.7500      0.50000       0.0000                                                                       
       1013     3.0000      0.50000       0.0000                                                                       
       1014     3.2500      0.50000       0.0000                                                                       
       1015     3.5000      0.50000       0.0000                                                                       
       1016     3.7500      0.50000       0.0000                                                                       
       1017     4.0000      0.50000       0.0000                                                                       
       1018     4.2500      0.50000       0.0000                                                                       
       1019     4.5000      0.50000       0.0000                                                                       
       1020     4.7500      0.50000       0.0000                                                                       
       1021     5.0000      0.50000       0.0000                                                                       
       1101     0.0000      0.55000       0.0000                                                                       
       1102    0.25000      0.55000       0.0000                                                                       
       1103    0.50000      0.55000       0.0000                                                                       
       1104    0.75000      0.55000       0.0000                                                                       
       1105     1.0000      0.55000       0.0000                                                                       
       1106     1.2500      0.55000       0.0000                                                                       
       1107     1.5000      0.55000       0.0000                                                                       
       1108     1.7500      0.55000       0.0000                                                                       
       1109     2.0000      0.55000       0.0000                                                                       
       1110     2.2500      0.55000       0.0000                                                                       
       1111     2.5000      0.55000       0.0000                                                                       
       1112     2.7500      0.55000       0.0000                                                                       
       1113     3.0000      0.55000       0.0000                                                                       
       1114     3.2500      0.55000       0.0000                                                                       
       1115     3.5000      0.55000       0.0000                                                                       
       1116     3.7500      0.55000       0.0000                                                                       
       1117     4.0000      0.55000       0.0000                                                                       
       1118     4.2500      0.55000       0.0000                                                                       
       1119     4.5000      0.55000       0.0000                                                                       
       1120     4.7500      0.55000       0.0000                                                                       
       1121     5.0000      0.55000       0.0000                                                                       
       1201     0.0000      0.60000       0.0000                                                                       
       1202    0.25000      0.60000       0.0000                                                                       
       1203    0.50000      0.60000       0.0000                                                                       
       1204    0.75000      0.60000       0.0000                                                                       
       1205     1.0000      0.60000       0.0000                                                                       
       1206     1.2500      0.60000       0.0000                                                                       
       1207     1.5000      0.60000       0.0000                                                                       
       1208     1.7500      0.60000       0.0000                                                                       
       1209     2.0000      0.60000       0.0000                                                                       
       1210     2.2500      0.60000       0.0000                                                                       
       1211     2.5000      0.60000       0.0000                                                                       
       1212     2.7500      0.60000       0.0000                                                                       
       1213     3.0000      0.60000       0.0000                                                                       
       1214     3.2500      0.60000       0.0000                                                                       
       1215     3.5000      0.60000       0.0000                                                                       
       1216     3.7500      0.60000       0.0000                                                                       
       1217     4.0000      0.60000       0.0000                                                                       
       1218     4.2500      0.60000       0.0000                                                                       
       1219     4.5000      0.60000       0.0000                                                                       
       1220     4.7500      0.60000       0.0000                                                                       
       1221     5.0000      0.60000       0.0000                                                                       
       1301     0.0000      0.65000       0.0000                                                                       
       1302    0.25000      0.65000       0.0000                                                                       
       1303    0.50000      0.65000       0.0000                                                                       
       1304    0.75000      0.65000       0.0000                                                                       
       1305     1.0000      0.65000       0.0000                                                                       
[...]
        2014      -8.4258E+06 -6.3371E+05  2.9718E+04
        2015      -7.7874E+06 -6.2282E+05  4.0450E+04
        2016      -6.9446E+06 -6.0615E+05  5.2427E+04
        2017      -5.8324E+06 -5.7981E+05  6.5185E+04
        2018      -4.3413E+06 -5.4472E+05  7.1813E+04
        2019      -2.4994E+06 -5.2713E+05  6.4486E+04
        2020      -9.0600E+05 -5.8586E+05  7.9838E+04
        2021      -2.7044E+05 -5.4919E+05  9.8499E+04

 MAXIMUM          9.2456E+06  4.2826E+06  1.6634E+06                                                                        
  NODE                11           2         820                                                                         

 MINIMUM         -9.2455E+06 -1.6159E+07 -1.6634E+06                                                                        
  NODE              2011          21         802                                                                         
  
  
  
  
                                       N O D E   O U T P U T
  
  
  
  
   THE FOLLOWING TABLE IS PRINTED FOR ALL NODES
  
       NODE FOOT-   U1          U2       
            NOTE
  
          2      7.2619E-06 -6.3299E-05 
          3      1.4210E-05 -1.0336E-04 
          4      2.0017E-05 -1.4085E-04 
          5      2.6927E-05 -1.7483E-04 
          6      3.5003E-05 -2.0493E-04 
          7      4.4197E-05 -2.3046E-04 
          8      5.4312E-05 -2.5088E-04 
          9      6.5122E-05 -2.6575E-04 
         10      7.6394E-05 -2.7479E-04 
         11      8.7896E-05 -2.7783E-04 
         12      9.9398E-05 -2.7479E-04 
         13      1.1067E-04 -2.6575E-04 
         14      1.2148E-04 -2.5088E-04 
         15      1.3160E-04 -2.3046E-04 
         16      1.4079E-04 -2.0493E-04 
         17      1.4887E-04 -1.7483E-04 
         18      1.5578E-04 -1.4085E-04 
         19      1.6158E-04 -1.0336E-04 
         20      1.6853E-04 -6.3299E-05 
         21      1.7579E-04   0.000     
        101      1.2665E-05 -4.1119E-06 
        102      1.7246E-05 -6.2751E-05 
        103      2.1713E-05 -1.0389E-04 
        104      2.7175E-05 -1.4116E-04 
        105      3.3292E-05 -1.7527E-04 
        106      4.0539E-05 -2.0542E-04 
        107      4.8767E-05 -2.3101E-04 
        108      5.7822E-05 -2.5148E-04 
        109      6.7501E-05 -2.6638E-04 
        110      7.7595E-05 -2.7545E-04 
        111      8.7896E-05 -2.7848E-04 
        112      9.8197E-05 -2.7545E-04 
        113      1.0829E-04 -2.6638E-04 
        114      1.1797E-04 -2.5148E-04 
        115      1.2703E-04 -2.3101E-04 
        116      1.3525E-04 -2.0542E-04 
        117      1.4250E-04 -1.7527E-04 
        118      1.4862E-04 -1.4116E-04 
        119      1.5408E-04 -1.0389E-04 
        120      1.5855E-04 -6.2751E-05 
        121      1.6313E-04 -4.1119E-06 
        201      2.3530E-05 -7.7571E-06 
        202      2.6682E-05 -6.2342E-05 
        203      2.9485E-05 -1.0420E-04 
        204      3.4154E-05 -1.4148E-04 
        205      3.9577E-05 -1.7564E-04 
        206      4.5976E-05 -2.0586E-04 
        207      5.3261E-05 -2.3151E-04 
        208      6.1275E-05 -2.5201E-04 
        209      6.9842E-05 -2.6695E-04 
        210      7.8777E-05 -2.7603E-04 
        211      8.7896E-05 -2.7907E-04 
        212      9.7015E-05 -2.7603E-04 
        213      1.0595E-04 -2.6695E-04 
        214      1.1452E-04 -2.5201E-04 
        215      1.2253E-04 -2.3151E-04 
        216      1.2982E-04 -2.0586E-04 
        217      1.3621E-04 -1.7564E-04 
        218      1.4164E-04 -1.4148E-04 
        219      1.4631E-04 -1.0420E-04 
        220      1.4911E-04 -6.2342E-05 
        221      1.5226E-04 -7.7571E-06 
        301      3.3224E-05 -1.0957E-05 
        302      3.5575E-05 -6.2111E-05 
        303      3.7287E-05 -1.0435E-04 
        304      4.1051E-05 -1.4176E-04 
        305      4.5767E-05 -1.7597E-04 
        306      5.1334E-05 -2.0625E-04 
        307      5.7687E-05 -2.3194E-04 
        308      6.4677E-05 -2.5248E-04 
        309      7.2149E-05 -2.6745E-04 
        310      7.9942E-05 -2.7654E-04 
        311      8.7896E-05 -2.7959E-04 
        312      9.5850E-05 -2.7654E-04 
        313      1.0364E-04 -2.6745E-04 
        314      1.1112E-04 -2.5248E-04 
        315      1.1810E-04 -2.3194E-04 
        316      1.2446E-04 -2.0625E-04 
        317      1.3003E-04 -1.7597E-04 
        318      1.3474E-04 -1.4176E-04 
        319      1.3851E-04 -1.0435E-04 
        320      1.4022E-04 -6.2111E-05 
        321      1.4257E-04 -1.0957E-05 
        401      4.2122E-05 -1.3748E-05 
        402      4.3992E-05 -6.2048E-05 
        403      4.4994E-05 -1.0441E-04 
        404      4.7888E-05 -1.4200E-04 
        405      5.1871E-05 -1.7625E-04 
        406      5.6622E-05 -2.0659E-04 
        407      6.2055E-05 -2.3232E-04 
        408      6.8034E-05 -2.5290E-04 
        409      7.4426E-05 -2.6788E-04 
        410      8.1092E-05 -2.7699E-04 
        411      8.7896E-05 -2.8004E-04 
        412      9.4700E-05 -2.7699E-04 
        413      1.0137E-04 -2.6788E-04 
        414      1.0776E-04 -2.5290E-04 
        415      1.1374E-04 -2.3232E-04 
        416      1.1917E-04 -2.0659E-04 
        417      1.2392E-04 -1.7625E-04 
        418      1.2790E-04 -1.4200E-04 
        419      1.3080E-04 -1.0441E-04 
        420      1.3180E-04 -6.2048E-05 
        421      1.3367E-04 -1.3748E-05 
        501      5.0458E-05 -1.6170E-05 
        502      5.2014E-05 -6.2124E-05 
        503      5.2551E-05 -1.0440E-04 
        504      5.4665E-05 -1.4217E-04 
        505      5.7904E-05 -1.7650E-04 
        506      6.1849E-05 -2.0688E-04 
        507      6.6372E-05 -2.3265E-04 
        508      7.1354E-05 -2.5325E-04 
        509      7.6678E-05 -2.6826E-04 
        510      8.2230E-05 -2.7738E-04 
        511      8.7896E-05 -2.8043E-04 
        512      9.3562E-05 -2.7738E-04 
        513      9.9115E-05 -2.6826E-04 
        514      1.0444E-04 -2.5325E-04 
        515      1.0942E-04 -2.3265E-04 
        516      1.1394E-04 -2.0688E-04 
        517      1.1789E-04 -1.7650E-04 
        518      1.2113E-04 -1.4217E-04 
        519      1.2324E-04 -1.0440E-04 
        520      1.2378E-04 -6.2124E-05 
        521      1.2533E-04 -1.6170E-05 
        601      5.8390E-05 -1.8262E-05 
        602      5.9717E-05 -6.2303E-05 
        603      5.9941E-05 -1.0436E-04 
        604      6.1375E-05 -1.4230E-04 
        605      6.3879E-05 -1.7670E-04 
        606      6.7025E-05 -2.0713E-04 
        607      7.0648E-05 -2.3293E-04 
        608      7.4642E-05 -2.5355E-04 
        609      7.8908E-05 -2.6857E-04 
        610      8.3357E-05 -2.7770E-04 
        611      8.7896E-05 -2.8076E-04 
        612      9.2435E-05 -2.7770E-04 
        613      9.6884E-05 -2.6857E-04 
        614      1.0115E-04 -2.5355E-04 
        615      1.0514E-04 -2.3293E-04 
        616      1.0877E-04 -2.0713E-04 
        617      1.1191E-04 -1.7670E-04 
        618      1.1442E-04 -1.4230E-04 
        619      1.1585E-04 -1.0436E-04 
        620      1.1608E-04 -6.2303E-05 
        621      1.1740E-04 -1.8262E-05 
        701      6.6027E-05 -2.0060E-05 
        702      6.7168E-05 -6.2555E-05 
        703      6.7171E-05 -1.0432E-04 
        704      6.8017E-05 -1.4237E-04 
        705      6.9807E-05 -1.7686E-04 
        706      7.2159E-05 -2.0733E-04 
        707      7.4891E-05 -2.3316E-04 
        708      7.7905E-05 -2.5380E-04 
        709      8.1122E-05 -2.6883E-04 
        710      8.4475E-05 -2.7797E-04 
        711      8.7896E-05 -2.8103E-04 
        712      9.1317E-05 -2.7797E-04 
        713      9.4670E-05 -2.6883E-04 
        714      9.7887E-05 -2.5380E-04 
        715      1.0090E-04 -2.3316E-04 
        716      1.0363E-04 -2.0733E-04 
        717      1.0599E-04 -1.7686E-04 
        718      1.0777E-04 -1.4237E-04 
        719      1.0862E-04 -1.0432E-04 
        720      1.0862E-04 -6.2555E-05 
        721      1.0977E-04 -2.0060E-05 
        801      7.3449E-05 -2.1595E-05 
        802      7.4426E-05 -6.2852E-05 
        803      7.4260E-05 -1.0428E-04 
        804      7.4594E-05 -1.4241E-04 
        805      7.5696E-05 -1.7697E-04 
        806      7.7263E-05 -2.0749E-04 
        807      7.9110E-05 -2.3334E-04 
        808      8.1149E-05 -2.5399E-04 
        809      8.3324E-05 -2.6904E-04 
        810      8.5588E-05 -2.7817E-04 
        811      8.7896E-05 -2.8124E-04 
        812      9.0205E-05 -2.7817E-04 
        813      9.2468E-05 -2.6904E-04 
        814      9.4643E-05 -2.5399E-04 
        815      9.6682E-05 -2.3334E-04 
        816      9.8529E-05 -2.0749E-04 
        817      1.0010E-04 -1.7697E-04 
        818      1.0120E-04 -1.4241E-04 
        819      1.0153E-04 -1.0428E-04 
        820      1.0137E-04 -6.2852E-05 
        821      1.0234E-04 -2.1595E-05 
        901      8.0719E-05 -2.2896E-05 
        902      8.1542E-05 -6.3173E-05 
        903      8.1233E-05 -1.0425E-04 
        904      8.1114E-05 -1.4242E-04 
        905      8.1557E-05 -1.7705E-04 
        906      8.2346E-05 -2.0760E-04 
        907      8.3313E-05 -2.3347E-04 
        908      8.4382E-05 -2.5414E-04 
        909      8.5517E-05 -2.6918E-04 
        910      8.6696E-05 -2.7832E-04 
        911      8.7896E-05 -2.8139E-04 
        912      8.9096E-05 -2.7832E-04 
        913      9.0275E-05 -2.6918E-04 
        914      9.1411E-05 -2.5414E-04 
        915      9.2479E-05 -2.3347E-04 
        916      9.3446E-05 -2.0760E-04 
        917      9.4236E-05 -1.7705E-04 
        918      9.4679E-05 -1.4242E-04 
        919      9.4559E-05 -1.0425E-04 
        920      9.4251E-05 -6.3173E-05 
        921      9.5073E-05 -2.2896E-05 
       1001      8.7885E-05 -2.3987E-05 
       1002      8.8559E-05 -6.3499E-05 
       1003      8.8118E-05 -1.0422E-04 
       1004      8.7588E-05 -1.4241E-04 
       1005      8.7399E-05 -1.7709E-04 
       1006      8.7420E-05 -2.0768E-04 
       1007      8.7508E-05 -2.3356E-04 
       1008      8.7608E-05 -2.5423E-04 
       1009      8.7706E-05 -2.6927E-04 
       1010      8.7802E-05 -2.7842E-04 
       1011      8.7896E-05 -2.8148E-04 
       1012      8.7990E-05 -2.7842E-04 
       1013      8.8086E-05 -2.6927E-04 
       1014      8.8184E-05 -2.5423E-04 
       1015      8.8284E-05 -2.3356E-04 
       1016      8.8373E-05 -2.0768E-04 
       1017      8.8393E-05 -1.7709E-04 
       1018      8.8204E-05 -1.4241E-04 
       1019      8.7674E-05 -1.0422E-04 
       1020      8.7234E-05 -6.3499E-05 
       1021      8.7907E-05 -2.3987E-05 
       1101      9.4987E-05 -2.4890E-05 
       1102      9.5515E-05 -6.3818E-05 
       1103      9.4943E-05 -1.0421E-04 
       1104      9.4034E-05 -1.4237E-04 
       1105      9.3235E-05 -1.7710E-04 
       1106      9.2493E-05 -2.0771E-04 
       1107      9.1704E-05 -2.3360E-04 
       1108      9.0835E-05 -2.5426E-04 
       1109      8.9896E-05 -2.6931E-04 
       1110      8.8908E-05 -2.7845E-04 
       1111      8.7896E-05 -2.8152E-04 
       1112      8.6884E-05 -2.7845E-04 
       1113      8.5897E-05 -2.6931E-04 
       1114      8.4957E-05 -2.5426E-04 
       1115      8.4088E-05 -2.3360E-04 
       1116      8.3299E-05 -2.0771E-04 
       1117      8.2558E-05 -1.7710E-04 
       1118      8.1759E-05 -1.4237E-04 
       1119      8.0849E-05 -1.0421E-04 
       1120      8.0277E-05 -6.3818E-05 
       1121      8.0806E-05 -2.4890E-05 
       1201      1.0206E-04 -2.5626E-05 
       1202      1.0244E-04 -6.4120E-05 
       1203      1.0174E-04 -1.0420E-04 
       1204      1.0047E-04 -1.4232E-04 
       1205      9.9076E-05 -1.7708E-04 
       1206      9.7577E-05 -2.0770E-04 
       1207      9.5909E-05 -2.3359E-04 
       1208      9.4069E-05 -2.5425E-04 
       1209      9.2089E-05 -2.6929E-04 
       1210      9.0016E-05 -2.7843E-04 
       1211      8.7896E-05 -2.8149E-04 
       1212      8.5776E-05 -2.7843E-04 
       1213      8.3703E-05 -2.6929E-04 
       1214      8.1723E-05 -2.5425E-04 
       1215      7.9883E-05 -2.3359E-04 
       1216      7.8216E-05 -2.0770E-04 
       1217      7.6716E-05 -1.7708E-04 
       1218      7.5325E-05 -1.4232E-04 
       1219      7.4056E-05 -1.0420E-04 
       1220      7.3348E-05 -6.4120E-05 
       1221      7.3734E-05 -2.5626E-05 
       1301      1.0913E-04 -2.6214E-05 
       1302      1.0938E-04 -6.4398E-05 
       1303      1.0853E-04 -1.0420E-04 
       1304      1.0691E-04 -1.4226E-04 
       1305      1.0494E-04 -1.7703E-04 
       1306      1.0268E-04 -2.0765E-04 
       1307      1.0013E-04 -2.3353E-04 
       1308      9.7316E-05 -2.5418E-04 
       1309      9.4292E-05 -2.6921E-04 
       1310      9.1129E-05 -2.7834E-04 
       1311      8.7896E-05 -2.8141E-04 
       1312      8.4664E-05 -2.7834E-04 
       1313      8.1500E-05 -2.6921E-04 
       1314      7.8477E-05 -2.5418E-04 
       1315      7.5660E-05 -2.3353E-04 
       1316      7.3110E-05 -2.0765E-04 
       1317      7.0855E-05 -1.7703E-04 
       1318      6.8884E-05 -1.4226E-04 
       1319      6.7266E-05 -1.0420E-04 
       1320      6.6414E-05 -6.4398E-05 
       1321      6.6664E-05 -2.6214E-05 
       1401      1.1622E-04 -2.6673E-05 
       1402      1.1634E-04 -6.4647E-05 
       1403      1.1534E-04 -1.0419E-04 
       1404      1.1338E-04 -1.4218E-04 
       1405      1.1083E-04 -1.7694E-04 
       1406      1.0782E-04 -2.0756E-04 
       1407      1.0438E-04 -2.3343E-04 
       1408      1.0058E-04 -2.5406E-04 
       1409      9.6507E-05 -2.6908E-04 
       1410      9.2248E-05 -2.7820E-04 
       1411      8.7896E-05 -2.8126E-04 
       1412      8.3545E-05 -2.7820E-04 
       1413      7.9285E-05 -2.6908E-04 
       1414      7.5210E-05 -2.5406E-04 
       1415      7.1412E-05 -2.3343E-04 
       1416      6.7973E-05 -2.0756E-04 
       1417      6.4960E-05 -1.7694E-04 
       1418      6.2414E-05 -1.4218E-04 
       1419      6.0453E-05 -1.0419E-04 
       1420      5.9451E-05 -6.4647E-05 
       1421      5.9570E-05 -2.6673E-05 
       1501      1.2336E-04 -2.7021E-05 
       1502      1.2336E-04 -6.4865E-05 
       1503      1.2220E-04 -1.0418E-04 
       1504      1.1990E-04 -1.4209E-04 
       1505      1.1678E-04 -1.7683E-04 
       1506      1.1300E-04 -2.0743E-04 
       1507      1.0866E-04 -2.3327E-04 
       1508      1.0387E-04 -2.5388E-04 
       1509      9.8739E-05 -2.6889E-04 
       1510      9.3375E-05 -2.7800E-04 
       1511      8.7896E-05 -2.8106E-04 
       1512      8.2417E-05 -2.7800E-04 
       1513      7.7053E-05 -2.6889E-04 
       1514      7.1919E-05 -2.5388E-04 
       1515      6.7128E-05 -2.3327E-04 
       1516      6.2793E-05 -2.0743E-04 
       1517      5.9016E-05 -1.7683E-04 
       1518      5.5894E-05 -1.4209E-04 
       1519      5.3591E-05 -1.0418E-04 
       1520      5.2433E-05 -6.4865E-05 
       1521      5.2432E-05 -2.7021E-05 
       1601      1.3056E-04 -2.7280E-05 
       1602      1.3045E-04 -6.5051E-05 
       1603      1.2914E-04 -1.0417E-04 
       1604      1.2649E-04 -1.4199E-04 
       1605      1.2279E-04 -1.7669E-04 
       1606      1.1823E-04 -2.0725E-04 
       1607      1.1299E-04 -2.3307E-04 
       1608      1.0720E-04 -2.5365E-04 
       1609      1.0099E-04 -2.6864E-04 
       1610      9.4513E-05 -2.7774E-04 
       1611      8.7896E-05 -2.8080E-04 
       1612      8.1280E-05 -2.7774E-04 
       1613      7.4800E-05 -2.6864E-04 
       1614      6.8595E-05 -2.5365E-04 
       1615      6.2802E-05 -2.3307E-04 
       1616      5.7558E-05 -2.0725E-04 
       1617      5.3006E-05 -1.7669E-04 
       1618      4.9302E-05 -1.4199E-04 
       1619      4.6653E-05 -1.0417E-04 
       1620      4.5339E-05 -6.5051E-05 
       1621      4.5233E-05 -2.7280E-05 
       1701      1.3783E-04 -2.7470E-05 
       1702      1.3764E-04 -6.5204E-05 
       1703      1.3618E-04 -1.0414E-04 
       1704      1.3318E-04 -1.4187E-04 
       1705      1.2888E-04 -1.7651E-04 
       1706      1.2353E-04 -2.0703E-04 
       1707      1.1737E-04 -2.3281E-04 
       1708      1.1056E-04 -2.5336E-04 
       1709      1.0327E-04 -2.6833E-04 
       1710      9.5663E-05 -2.7742E-04 
       1711      8.7896E-05 -2.8047E-04 
       1712      8.0129E-05 -2.7742E-04 
       1713      7.2522E-05 -2.6833E-04 
       1714      6.5234E-05 -2.5336E-04 
       1715      5.8425E-05 -2.3281E-04 
       1716      5.2259E-05 -2.0703E-04 
       1717      4.6915E-05 -1.7651E-04 
       1718      4.2612E-05 -1.4187E-04 
       1719      3.9612E-05 -1.0414E-04 
       1720      3.8150E-05 -6.5204E-05 
       1721      3.7961E-05 -2.7470E-05 
       1801      1.4518E-04 -2.7612E-05 
       1802      1.4494E-04 -6.5326E-05 
       1803      1.4335E-04 -1.0410E-04 
       1804      1.3999E-04 -1.4173E-04 
       1805      1.3507E-04 -1.7630E-04 
       1806      1.2891E-04 -2.0677E-04 
       1807      1.2180E-04 -2.3250E-04 
       1808      1.1396E-04 -2.5302E-04 
       1809      1.0558E-04 -2.6795E-04 
       1810      9.6828E-05 -2.7703E-04 
       1811      8.7896E-05 -2.8007E-04 
       1812      7.8964E-05 -2.7703E-04 
       1813      7.0215E-05 -2.6795E-04 
       1814      6.1829E-05 -2.5302E-04 
       1815      5.3988E-05 -2.3250E-04 
       1816      4.6883E-05 -2.0677E-04 
       1817      4.0727E-05 -1.7630E-04 
       1818      3.5801E-05 -1.4173E-04 
       1819      3.2439E-05 -1.0410E-04 
       1820      3.0850E-05 -6.5326E-05 
       1821      3.0613E-05 -2.7612E-05 
       1901      1.5260E-04 -2.7731E-05 
       1902      1.5237E-04 -6.5422E-05 
       1903      1.5069E-04 -1.0406E-04 
       1904      1.4695E-04 -1.4157E-04 
       1905      1.4137E-04 -1.7605E-04 
       1906      1.3437E-04 -2.0645E-04 
       1907      1.2631E-04 -2.3213E-04 
       1908      1.1742E-04 -2.5261E-04 
       1909      1.0792E-04 -2.6751E-04 
       1910      9.8010E-05 -2.7657E-04 
       1911      8.7896E-05 -2.7961E-04 
       1912      7.7782E-05 -2.7657E-04 
       1913      6.7874E-05 -2.6751E-04 
       1914      5.8373E-05 -2.5261E-04 
       1915      4.9485E-05 -2.3213E-04 
       1916      4.1420E-05 -2.0645E-04 
       1917      3.4427E-05 -1.7605E-04 
       1918      2.8843E-05 -1.4157E-04 
       1919      2.5100E-05 -1.0406E-04 
       1920      2.3424E-05 -6.5422E-05 
       1921      2.3195E-05 -2.7731E-05 
       2001      1.6006E-04 -2.7848E-05 
       2002      1.5993E-04 -6.5500E-05 
       2003      1.5824E-04 -1.0400E-04 
       2004      1.5408E-04 -1.4138E-04 
       2005      1.4779E-04 -1.7576E-04 
       2006      1.3993E-04 -2.0608E-04 
       2007      1.3089E-04 -2.3170E-04 
       2008      1.2093E-04 -2.5213E-04 
       2009      1.1030E-04 -2.6701E-04 
       2010      9.9210E-05 -2.7605E-04 
       2011      8.7896E-05 -2.7908E-04 
       2012      7.6582E-05 -2.7605E-04 
       2013      6.5495E-05 -2.6701E-04 
       2014      5.4861E-05 -2.5213E-04 
       2015      4.4906E-05 -2.3170E-04 
       2016      3.5860E-05 -2.0608E-04 
       2017      2.7999E-05 -1.7576E-04 
       2018      2.1714E-05 -1.4138E-04 
       2019      1.7554E-05 -1.0400E-04 
       2020      1.5861E-05 -6.5500E-05 
       2021      1.5728E-05 -2.7848E-05 

 MAXIMUM         1.7579E-04   0.000    
 AT NODE                21           1

 MINIMUM          0.000     -2.8152E-04
 AT NODE                 1        1111
  
  
  
   THE FOLLOWING TABLE IS PRINTED FOR ALL NODES
  
       NODE FOOT-   RF1         RF2      
            NOTE
  
          1      7.3906E-09  2.5000E+05 
         21       0.000      2.5000E+05 

 MAXIMUM         7.3906E-09  2.5000E+05
 AT NODE                 1           1

 MINIMUM          0.000       0.000    
 AT NODE                 2           2


          THE ANALYSIS HAS BEEN COMPLETED



                              ANALYSIS COMPLETE



     JOB TIME SUMMARY
       USER TIME (SEC)      =  0.29000    
       SYSTEM TIME (SEC)    =  0.13000    
       TOTAL CPU TIME (SEC) =  0.42000    
       WALLCLOCK TIME (SEC) =          1
