*Heading
** Job name: 2D_Cantilever Model name: Model-1
** Generated by: Abaqus/CAE 6.12-1
*Preprint, echo=NO, model=NO, history=NO, contact=NO
**
** PARTS
**
*Part, name=Beam
*Node
      1,           0.,           0.
      2,          1.5,           0.
      3,           3.,           0.
      4,          4.5,           0.
      5,           6.,           0.
      6,           0., 0.0500000007
      7,          1.5, 0.0500000007
      8,           3., 0.0500000007
      9,          4.5, 0.0500000007
     10,           6., 0.0500000007
     11,           0.,  0.100000001
     12,          1.5,  0.100000001
     13,           3.,  0.100000001
     14,          4.5,  0.100000001
     15,           6.,  0.100000001
     16,           0.,  0.150000006
     17,          1.5,  0.150000006
     18,           3.,  0.150000006
     19,          4.5,  0.150000006
     20,           6.,  0.150000006
** ... 45 like lines cut
*Element, type=CPS8R
 1,  1,  2,  7,  6, 26, 27, 28, 29
 2,  2,  3,  8,  7, 30, 31, 32, 27
 3,  3,  4,  9,  8, 33, 34, 35, 31
 4,  4,  5, 10,  9, 36, 37, 38, 34
 5,  6,  7, 12, 11, 28, 39, 40, 41
 6,  7,  8, 13, 12, 32, 42, 43, 39
 7,  8,  9, 14, 13, 35, 44, 45, 42
 8,  9, 10, 15, 14, 38, 46, 47, 44
 9, 11, 12, 17, 16, 40, 48, 49, 50
10, 12, 13, 18, 17, 43, 51, 52, 48
11, 13, 14, 19, 18, 45, 53, 54, 51
12, 14, 15, 20, 19, 47, 55, 56, 53
13, 16, 17, 22, 21, 49, 57, 58, 59
14, 17, 18, 23, 22, 52, 60, 61, 57
15, 18, 19, 24, 23, 54, 62, 63, 60
16, 19, 20, 25, 24, 56, 64, 65, 62
*Nset, nset=_PickedSet2, internal, generate
  1,  65,   1
*Elset, elset=_PickedSet2, internal, generate
  1,  16,   1
** Section: Steel
*Solid Section, elset=_PickedSet2, material=Steel
0.1,
*End Part
**  
**
** ASSEMBLY
**
*Assembly, name=Assembly
**  
*Instance, name=Beam-1, part=Beam
*End Instance
**  
*Nset, nset=Fixed_End, instance=Beam-1
  1,  6, 11, 16, 21, 29, 41, 50, 59
*Elset, elset=Fixed_End, instance=Beam-1, generate
  1,  13,   4
*Nset, nset=Load_Points, instance=Beam-1
  5, 25
*End Assembly
** 
** MATERIALS
** 
*Material, name=Steel
*Elastic
 1.41007e+09, 0.3
** ----------------------------------------------------------------
** 
** STEP: Step-1
** 
*Step, name=Step-1
Tip Load
*Static
1., 1., 1e-05, 1.
** 
** BOUNDARY CONDITIONS
** 
** Name: Cantilever_Fixed Type: Symmetry/Antisymmetry/Encastre
*Boundary
Fixed_End, ENCASTRE
** 
** LOADS
** 
** Name: Tip_Load   Type: Concentrated force
*Cload
Load_Points, 2, -1.
** 
** OUTPUT REQUESTS
** 
*Restart, write, frequency=0
** 
** FIELD OUTPUT: F-Output-1
** 
*Output, field
*Node Output
CF, RF, RM, RT, U, UR, UT
*Element Output, directions=YES
E, EE, MISES, S
** 
** HISTORY OUTPUT: H-Output-1
** 
*Output, history, variable=PRESELECT
*End Step
