*Heading
** Job name: 2D_Cantilever Model name: Model-1
** Generated by: Abaqus/CAE 6.13-1
*Preprint, echo=NO, model=NO, history=NO, contact=NO
**
** PARTS
**
*Part, name=Beam
*Node
      1,           0.,           0.
      2,  0.200000003,           0.
      3,  0.400000006,           0.
      4,  0.600000024,           0.
      5,  0.800000012,           0.
      6,           1.,           0.
      7,           0., 0.0250000004
      8,  0.200000003, 0.0250000004
      9,  0.400000006, 0.0250000004
     10,  0.600000024, 0.0250000004
     11,  0.800000012, 0.0250000004
     12,           1., 0.0250000004
     13,           0., 0.0500000007
     14,  0.200000003, 0.0500000007
     15,  0.400000006, 0.0500000007
     16,  0.600000024, 0.0500000007
     17,  0.800000012, 0.0500000007
     18,           1., 0.0500000007
     19,           0.,  0.075000003
     20,  0.200000003,  0.075000003
** ... 10 like lines cut
*Element, type=CPS4R
 1,  1,  2,  8,  7
 2,  2,  3,  9,  8
 3,  3,  4, 10,  9
 4,  4,  5, 11, 10
 5,  5,  6, 12, 11
 6,  7,  8, 14, 13
 7,  8,  9, 15, 14
 8,  9, 10, 16, 15
 9, 10, 11, 17, 16
10, 11, 12, 18, 17
11, 13, 14, 20, 19
12, 14, 15, 21, 20
13, 15, 16, 22, 21
14, 16, 17, 23, 22
15, 17, 18, 24, 23
16, 19, 20, 26, 25
17, 20, 21, 27, 26
18, 21, 22, 28, 27
19, 22, 23, 29, 28
20, 23, 24, 30, 29
*Nset, nset=_PickedSet2, internal, generate
  1,  30,   1
*Elset, elset=_PickedSet2, internal, generate
  1,  20,   1
** Section: Steel
*Solid Section, elset=_PickedSet2, material=Steel
0.1,
*End Part
**  
**
** ASSEMBLY
**
*Assembly, name=Assembly
**  
*Instance, name=Beam-1, part=Beam
*End Instance
**  
*Nset, nset=Fixed_End, instance=Beam-1, generate
  1,  25,   6
*Elset, elset=Fixed_End, instance=Beam-1, generate
  1,  16,   5
*Nset, nset=Load_Points, instance=Beam-1
  6, 30
*End Assembly
** 
** MATERIALS
** 
*Material, name=Steel
*Elastic
 2e+11, 0.3
** ----------------------------------------------------------------
** 
** STEP: Step-1
** 
*Step, name=Step-1, nlgeom=NO
Tip Load
*Static
1., 1., 1e-05, 1.
** 
** BOUNDARY CONDITIONS
** 
** Name: Cantilever_Fixed Type: Symmetry/Antisymmetry/Encastre
*Boundary
Fixed_End, ENCASTRE
** 
** LOADS
** 
** Name: Tip_Load   Type: Concentrated force
*Cload
Load_Points, 2, -10000.
** 
** OUTPUT REQUESTS
** 
*Restart, write, frequency=0
** 
** FIELD OUTPUT: F-Output-1
** 
*Output, field
*Node Output
CF, RF, RM, RT, U, UR, UT
*Element Output, directions=YES
E, EE, MISES, S
** 
** HISTORY OUTPUT: H-Output-1
** 
*Output, history, variable=PRESELECT
*End Step
