$# LS-DYNA Keyword file created by LS-PrePost(R) V4.3DP - 09Aug2016(09:00)
$# Created on Nov-22-2016 (12:28:11)
*KEYWORD  
*CONTROL_TERMINATION
$#  endtim    endcyc     dtmin    endeng    endmas      
       0.5         0       0.0       0.01.000000E8
*DATABASE_ELOUT
$#      dt    binary      lcur     ioopt   option1   option2   option3   option4
5.00000E-4         0         0         1         0         0         0         0
*DATABASE_MATSUM
$#      dt    binary      lcur     ioopt     
5.00000E-4         0         0         1
*DATABASE_NODOUT
$#      dt    binary      lcur     ioopt   option1   option2       
5.00000E-4         0         0         1       0.0         0
*DATABASE_BINARY_D3PLOT
$#      dt      lcdt      beam     npltc    psetid      
5.00000E-4         0         0         0         0
$#   ioopt     
         0
*BOUNDARY_SPC_SET
$#    nsid       cid      dofx      dofy      dofz     dofrx     dofry     dofrz
         1         0         1         1         1         1         1         1
*SET_NODE_LIST_TITLE
NODESET(SPC) 1
$#     sid       da1       da2       da3       da4    solver      
         1       0.0       0.0       0.0       0.0MECH
$#    nid1      nid2      nid3      nid4      nid5      nid6      nid7      nid8
         1       102       203       304       405       506       607       708
       809       910      1011      1112      1213      1314      1415      1516
      1617      1718      1819      1920      2021      2122      2223      2324
      2425      2526      2627      2728      2829      2930      3031      3132
      3233      3334      3435      3536         0         0         0         0
*CONTACT_AUTOMATIC_SURFACE_TO_SURFACE_ID
$#     cid                                                                 title
         1surf-to-surf
$#    ssid      msid     sstyp     mstyp    sboxid    mboxid       spr       mpr
         1         2         3         3         0         0         0         0
$#      fs        fd        dc        vc       vdc    penchk        bt        dt
       0.0       0.0       0.0       0.0       0.0         0       0.01.00000E20
$#     sfs       sfm       sst       mst      sfst      sfmt       fsf       vsf
       1.0       1.0       0.0       0.0       1.0       1.0       1.0       1.0
*PART
$#                                                                         title
beam
$#     pid     secid       mid     eosid      hgid      grav    adpopt      tmid
         1         1         1         0         0         0         0         0
*SECTION_SOLID_TITLE
solid-el
$#   secid    elform       aet   
         1         1         0
*MAT_ELASTIC_TITLE
steel-elastic
$#     mid        ro         e        pr        da        db  not used        
         1    7850.02.00000E11       0.3       0.0       0.0         0
*PART
$#                                                                         title
ball
$#     pid     secid       mid     eosid      hgid      grav    adpopt      tmid
         2         1         2         0         0         0         0         0
*MAT_ISOTROPIC_ELASTIC_PLASTIC_TITLE
aluminium-elastic-plastic
$#     mid        ro         g      sigy      etan      bulk    
         2    2700.06.50000E102.500000E82.20000E101.15000E11
*INITIAL_VELOCITY_NODE
$#     nid        vx        vy        vz       vxr       vyr       vzr      icid
      3637       0.0       0.0     -10.0       0.0       0.0       0.0         0
      3638       0.0       0.0     -10.0       0.0       0.0       0.0         0
      3639       0.0       0.0     -10.0       0.0       0.0       0.0         0
      3640       0.0       0.0     -10.0       0.0       0.0       0.0         0
      3641       0.0       0.0     -10.0       0.0       0.0       0.0         0
      3642       0.0       0.0     -10.0       0.0       0.0       0.0         0
      3643       0.0       0.0     -10.0       0.0       0.0       0.0         0
      3644       0.0       0.0     -10.0       0.0       0.0       0.0         0
      3645       0.0       0.0     -10.0       0.0       0.0       0.0         0
      3646       0.0       0.0     -10.0       0.0       0.0       0.0         0
      3647       0.0       0.0     -10.0       0.0       0.0       0.0         0
      3648       0.0       0.0     -10.0       0.0       0.0       0.0         0
      3649       0.0       0.0     -10.0       0.0       0.0       0.0         0
      3650       0.0       0.0     -10.0       0.0       0.0       0.0         0
      3651       0.0       0.0     -10.0       0.0       0.0       0.0         0
      3652       0.0       0.0     -10.0       0.0       0.0       0.0         0
      3653       0.0       0.0     -10.0       0.0       0.0       0.0         0
      3654       0.0       0.0     -10.0       0.0       0.0       0.0         0
      3655       0.0       0.0     -10.0       0.0       0.0       0.0         0
      3656       0.0       0.0     -10.0       0.0       0.0       0.0         0
$ ... 956 like lines cut
*ELEMENT_SOLID
$#   eid     pid      n1      n2      n3      n4      n5      n6      n7      n8
       1       1       1       2     103     102     910     911    1012    1011
       2       1       2       3     104     103     911     912    1013    1012
       3       1       3       4     105     104     912     913    1014    1013
       4       1       4       5     106     105     913     914    1015    1014
       5       1       5       6     107     106     914     915    1016    1015
       6       1       6       7     108     107     915     916    1017    1016
       7       1       7       8     109     108     916     917    1018    1017
       8       1       8       9     110     109     917     918    1019    1018
       9       1       9      10     111     110     918     919    1020    1019
      10       1      10      11     112     111     919     920    1021    1020
      11       1      11      12     113     112     920     921    1022    1021
      12       1      12      13     114     113     921     922    1023    1022
      13       1      13      14     115     114     922     923    1024    1023
      14       1      14      15     116     115     923     924    1025    1024
      15       1      15      16     117     116     924     925    1026    1025
      16       1      16      17     118     117     925     926    1027    1026
      17       1      17      18     119     118     926     927    1028    1027
      18       1      18      19     120     119     927     928    1029    1028
      19       1      19      20     121     120     928     929    1030    1029
      20       1      20      21     122     121     929     930    1031    1030
$ ... 3255 like lines cut
*NODE
$#   nid               x               y               z      tc      rc  
       1             0.0             0.0             0.0       0       0
       2            0.01             0.0             0.0       0       0
       3            0.02             0.0             0.0       0       0
       4            0.03             0.0             0.0       0       0
       5            0.04             0.0             0.0       0       0
       6            0.05             0.0             0.0       0       0
       7            0.06             0.0             0.0       0       0
       8            0.07             0.0             0.0       0       0
       9            0.08             0.0             0.0       0       0
      10            0.09             0.0             0.0       0       0
      11             0.1             0.0             0.0       0       0
      12            0.11             0.0             0.0       0       0
      13            0.12             0.0             0.0       0       0
      14            0.13             0.0             0.0       0       0
      15            0.14             0.0             0.0       0       0
      16            0.15             0.0             0.0       0       0
      17            0.16             0.0             0.0       0       0
      18            0.17             0.0             0.0       0       0
      19            0.18             0.0             0.0       0       0
      20            0.19             0.0             0.0       0       0
$ ... 4592 like lines cut
*END
