1

   Abaqus 6.12-1                                  Date 13-Nov-2016   Time 21:24:02
   For use at  under license from Dassault Systemes or its subsidiary.



                         The Abaqus Software is a product of:

                           Dassault Systemes Simulia Corp.
                                 Rising Sun Mills
                                 166 Valley Street
                           Providence, RI 02909-2499, USA
 


                   Available for internal use at . 
                   The Abaqus Online Support System is accessible
                   through the "My Support" section of the SIMULIA
                   Home Page at http://www.simulia.com.

                   Support policies for academic licenses are described
                   on the SIMULIA web site at
                   http://www.simulia.com/academics/academic_support.html.
 
                          On machine tlf20.see.ed.ac.uk 
                          you are authorized to run
                          Abaqus/Standard until 30-Jun-2017

                          Your site id is: 200000000040703 


 
                    For assistance or any other information you may
                    obtain contact information for your local office
                    from the world wide web at:

                      http://www.simulia.com/about/locations.html

 
                * * * * * * * * * * * * * * * * * * * * * * * * * * * * * * 
                *                                                         * 
                *                   *****************                     * 
                *                   *  N O T I C E  *                     * 
                *                   *****************                     * 
                *                                                         * 
                *                                                         * 
                *                    Abaqus 6.12-1                        * 
                *                                                         * 
                *          BUILD ID: 2012_03_13-20.21.46 119612           * 
                *                                                         * 
                *                                                         * 
                *  Please make sure you are using release 6.12 manuals    * 
                *  plus the notes accompanying this release.              * 
                *                                                         * 
                *                                                         * 
                *                                                         * 
                *                                                         * 
                *                                                         * 
                *   This program may not be used for commercial purposes  * 
                *           without payment of a commercial fee.          * 
                *                                                         * 
                * * * * * * * * * * * * * * * * * * * * * * * * * * * * * * 


 



     PROCESSING PART, INSTANCE, AND ASSEMBLY INFORMATION
   *******************************************************


     END PROCESSING PART, INSTANCE, AND ASSEMBLY INFORMATION
   ***********************************************************

1

   Abaqus 6.12-1                                  Date 13-Nov-2016   Time 21:24:02
   For use at  under license from Dassault Systemes or its subsidiary.

                                                                                     

                                             A B A Q U S   I N P U T   E C H O


                        5   10   15   20   25   30   35   40   45   50   55   60   65   70   75   80
                    --------------------------------------------------------------------------------
                    *HEADING
                    5m LONG BY 1m DEEP BY 0.2m THICK SIMPLY SUPPORTED BEAM WITH 100 KN/M DISTRIBUTED LOAD, 20X20 CPS4I MESH, E=200 GPa, V = 0.3     
                    ******************************  
                    *NODE   
     LINE     5     ** DEFINE LOCATION OF CORNER NODES      
                    1, 0.0, 0.0     
                    21, 2.5, 0.0    
                    2001, 0.0, 1.0  
                    2021, 2.50, 1.0 
     LINE    10     ******************************  
                    *NGEN, NSET=BOTTOM      
                    ** GENERATE ELEMENTS ALONG BOTTOM AND ADD NODES TO SET "BOTTOM" 
                    1, 21, 1
                    ******************************  
     LINE    15     ** CREATE NODES ALONG TOP AND ADD NODES TO SET "TOP"    
                    *NGEN, NSET=TOP 
                    2001, 2021, 1   
                    ******************************  
                    ** CREATE NODES BETWEEN "TOP" AND "BOTTOM", 20 NODES BETWEEN ENDS WITH NODE NUMBERING STEP OF 100       
     LINE    20     *NFILL  
                    BOTTOM, TOP, 20, 100    
                    ******************************  
                    **      
                    *NSET, NSET=SYM, GENERATE       
     LINE    25     21, 2021, 100   
                    ******************************  
                    **DEFINE THE FIRST "MASTER ELEMENT" NUMBER 1 AS A CPS4I CONSISTING OF NODES 1,2,102 AND 101     
                    *ELEMENT, TYPE=CPS4I    
                    1, 1, 2, 102, 101       
     LINE    30     ******************************  
                    ** GENERATE THE REST OF THE ELEMENTS BY COPYING ELEMENT 1, 20 ELEMENTS IN X, 20 ELEMENTS IN Y, NODE NUMBER INCREMENT OF 1 IN X, NODE NUMBER INCREMENT OF 100 IN Y, ELEMENT NUMBER INCREMENT OF 100 FROM ROW TO ROW, ASSIGN ELEMENTS TO SET "EALL"       
                    *ELGEN, ELSET=EALL      
                    1,20,1,1,20,100,20      
                    ******************************  
     LINE    35     ** DEFINE MATERIAL CALLED "STEEL"       
                    *MATERIAL,NAME=STEEL    
                    ******************************  
                    ** DEFINE ELASTIC MATERIAL PROPERTIES, E = 200 GPa AND POISSON'S RATIO 0.3      
                    *ELASTIC
     LINE    40     200E9, 0.3      
                    ******************************  
                    ** CREATE SECTION FROM MATERIAL "STEEL" AND ASSIGN IT TO ELEMENT SET "EALL", THICKNESS IS 0.2M  
                    *SOLID SECTION, MATERIAL=STEEL, ELSET=EALL      
                    0.2     
     LINE    45     ******************************  
                    **ASSIGN ELEMENTS IN TOP ROW TO ELSET "TOP"     
                    *ELSET, ELSET=TOP, GENERATE     
                    381, 400, 1     
                    ******************************  
     LINE    50     **ASK FOR HISTORY AND MODEL DATA TO BE INCLUDED IN RESULTS FILE 
                    *PREPRINT, ECHO=YES, MODEL=YES, HISTORY=YES     
                    ******************************  
                    ** BEGIN LINEAR STEP    
                    *STEP, PERTURBATION     
     LINE    55     ******************************  
                    ** DEFINE STEP AS STATIC
                    *STATIC 
                    ******************************  
                    ** DEFINE FIXED BOUNDARY AT NODE 1 LOCKED IN X AND Y DIRECTION AND AT NODE 21 LOCKED IN Y DIRECTION     
     LINE    60     *BOUNDARY       
                    1, 2, 2 
                    SYM, 1, 1       
                    ******************************  
                    ** DEFINE CONCENTRATED LOAD OF -0.5N IN Y DIRECTION ON EACH END CORNER NODE     
     LINE    65     *DLOAD  
                    TOP, P3, 500E3  
                    ******************************  
                    ** ASK ABAQUS TO PRINT COORDINATE, STRESS AND STRAIN FOR EACH ELEMENT (AT INTEGRATION POINTS INSIDE CELLS)      
                    *EL PRINT       
     LINE    70     COORD   
                    S       
                    E       
                    ******************************  
                    ** ASK ABAQUS TO PRINT STRESS VALUES AT NODES   
     LINE    75     *EL PRINT, POSITION=AVERAGED AT NODES   
                    S       
                    ******************************  
                    ** ASK ABAQUS TO PRINT FORCES AND DISPLACEMENTS AT NODES
                    *NODE PRINT     
     LINE    80     U       
                    RF      
                    ******************************  
                    ** END THE STEP 
                    *END STEP       
                    --------------------------------------------------------------------------------
                        5   10   15   20   25   30   35   40   45   50   55   60   65   70   75   80
                    --------------------------------------------------------------------------------



     OPTIONS BEING PROCESSED
   ***************************


  *HEADING
          5m LONG BY 1m DEEP BY 0.2m THICK SIMPLY SUPPORTED BEAM WITH 100 KN/M DISTRIBUTED LOAD, 20X20 CPS4I MESH, E=200 GPa, V = 0.3                                                                                                                                     
  *NODE
  *NGEN, NSET=BOTTOM
  *NGEN, NSET=TOP
  *NFILL

     THE FOLLOWING NODES WILL BE USED IN THE NFILL GENERATION


          BOUND  1              1         2         3         4         5         6         7         8         9        10
                               11        12        13        14        15        16        17        18        19        20
                               21

          BOUND  2           2001      2002      2003      2004      2005      2006      2007      2008      2009      2010
                             2011      2012      2013      2014      2015      2016      2017      2018      2019      2020
                             2021
  *NSET, NSET=SYM, GENERATE
  *ELEMENT, TYPE=CPS4I
  *ELGEN, ELSET=EALL
  *ELSET, ELSET=TOP, GENERATE
  *MATERIAL,NAME=STEEL
  *ELASTIC
  *SOLID SECTION, MATERIAL=STEEL, ELSET=EALL
  *BOUNDARY
  *SOLID SECTION, MATERIAL=STEEL, ELSET=EALL
  *STEP, PERTURBATION
  *STEP, PERTURBATION
  *STEP, PERTURBATION
  *STATIC
  *BOUNDARY
  *DLOAD
  *EL PRINT
  *EL PRINT, POSITION=AVERAGED AT NODES
  *NODE PRINT
  *END STEP
  *STEP, PERTURBATION
  *STATIC
  *BOUNDARY
  *END STEP
1

   Abaqus 6.12-1                                  Date 13-Nov-2016   Time 21:24:02
   For use at  under license from Dassault Systemes or its subsidiary.

     5m LONG BY 1m DEEP BY 0.2m THICK SIMPLY SUPPORTED BEAM WITH 100 KN/M DISTRIBUTED


                              E L E M E N T   D E F I N I T I O N S

       NUMBER   TYPE    PROPERTY    NODES FORMING ELEMENT
                        REFERENCE

          1   CPS4I         1          1         2       102       101
          2   CPS4I         1          2         3       103       102
          3   CPS4I         1          3         4       104       103
          4   CPS4I         1          4         5       105       104
          5   CPS4I         1          5         6       106       105
          6   CPS4I         1          6         7       107       106
          7   CPS4I         1          7         8       108       107
          8   CPS4I         1          8         9       109       108
          9   CPS4I         1          9        10       110       109
         10   CPS4I         1         10        11       111       110
         11   CPS4I         1         11        12       112       111
         12   CPS4I         1         12        13       113       112
         13   CPS4I         1         13        14       114       113
         14   CPS4I         1         14        15       115       114
         15   CPS4I         1         15        16       116       115
         16   CPS4I         1         16        17       117       116
         17   CPS4I         1         17        18       118       117
         18   CPS4I         1         18        19       119       118
         19   CPS4I         1         19        20       120       119
         20   CPS4I         1         20        21       121       120
         21   CPS4I         1        101       102       202       201
         22   CPS4I         1        102       103       203       202
         23   CPS4I         1        103       104       204       203
         24   CPS4I         1        104       105       205       204
         25   CPS4I         1        105       106       206       205
         26   CPS4I         1        106       107       207       206
         27   CPS4I         1        107       108       208       207
         28   CPS4I         1        108       109       209       208
         29   CPS4I         1        109       110       210       209
         30   CPS4I         1        110       111       211       210
         31   CPS4I         1        111       112       212       211
         32   CPS4I         1        112       113       213       212
         33   CPS4I         1        113       114       214       213
         34   CPS4I         1        114       115       215       214
         35   CPS4I         1        115       116       216       215
         36   CPS4I         1        116       117       217       216
         37   CPS4I         1        117       118       218       217
         38   CPS4I         1        118       119       219       218
         39   CPS4I         1        119       120       220       219
         40   CPS4I         1        120       121       221       220
         41   CPS4I         1        201       202       302       301
         42   CPS4I         1        202       203       303       302
         43   CPS4I         1        203       204       304       303
         44   CPS4I         1        204       205       305       304
         45   CPS4I         1        205       206       306       305
         46   CPS4I         1        206       207       307       306
         47   CPS4I         1        207       208       308       307
         48   CPS4I         1        208       209       309       308
         49   CPS4I         1        209       210       310       309
         50   CPS4I         1        210       211       311       310
         51   CPS4I         1        211       212       312       311
         52   CPS4I         1        212       213       313       312
         53   CPS4I         1        213       214       314       313
         54   CPS4I         1        214       215       315       314
         55   CPS4I         1        215       216       316       315
         56   CPS4I         1        216       217       317       316
         57   CPS4I         1        217       218       318       317
         58   CPS4I         1        218       219       319       318
         59   CPS4I         1        219       220       320       319
         60   CPS4I         1        220       221       321       320
         61   CPS4I         1        301       302       402       401
         62   CPS4I         1        302       303       403       402
         63   CPS4I         1        303       304       404       403
         64   CPS4I         1        304       305       405       404
         65   CPS4I         1        305       306       406       405
         66   CPS4I         1        306       307       407       406
         67   CPS4I         1        307       308       408       407
         68   CPS4I         1        308       309       409       408
         69   CPS4I         1        309       310       410       409
         70   CPS4I         1        310       311       411       410
         71   CPS4I         1        311       312       412       411
         72   CPS4I         1        312       313       413       412
         73   CPS4I         1        313       314       414       413
         74   CPS4I         1        314       315       415       414
         75   CPS4I         1        315       316       416       415
         76   CPS4I         1        316       317       417       416
         77   CPS4I         1        317       318       418       417
         78   CPS4I         1        318       319       419       418
         79   CPS4I         1        319       320       420       419
         80   CPS4I         1        320       321       421       420
         81   CPS4I         1        401       402       502       501
         82   CPS4I         1        402       403       503       502
         83   CPS4I         1        403       404       504       503
         84   CPS4I         1        404       405       505       504
         85   CPS4I         1        405       406       506       505
         86   CPS4I         1        406       407       507       506
         87   CPS4I         1        407       408       508       507
         88   CPS4I         1        408       409       509       508
         89   CPS4I         1        409       410       510       509
         90   CPS4I         1        410       411       511       510
         91   CPS4I         1        411       412       512       511
         92   CPS4I         1        412       413       513       512
         93   CPS4I         1        413       414       514       513
         94   CPS4I         1        414       415       515       514
         95   CPS4I         1        415       416       516       515
         96   CPS4I         1        416       417       517       516
         97   CPS4I         1        417       418       518       517
         98   CPS4I         1        418       419       519       518
         99   CPS4I         1        419       420       520       519
        100   CPS4I         1        420       421       521       520
        101   CPS4I         1        501       502       602       601
        102   CPS4I         1        502       503       603       602
        103   CPS4I         1        503       504       604       603
        104   CPS4I         1        504       505       605       604
        105   CPS4I         1        505       506       606       605
        106   CPS4I         1        506       507       607       606
        107   CPS4I         1        507       508       608       607
        108   CPS4I         1        508       509       609       608
        109   CPS4I         1        509       510       610       609
        110   CPS4I         1        510       511       611       610
        111   CPS4I         1        511       512       612       611
        112   CPS4I         1        512       513       613       612
        113   CPS4I         1        513       514       614       613
        114   CPS4I         1        514       515       615       614
        115   CPS4I         1        515       516       616       615
        116   CPS4I         1        516       517       617       616
        117   CPS4I         1        517       518       618       617
        118   CPS4I         1        518       519       619       618
        119   CPS4I         1        519       520       620       619
        120   CPS4I         1        520       521       621       620
        121   CPS4I         1        601       602       702       701
        122   CPS4I         1        602       603       703       702
        123   CPS4I         1        603       604       704       703
        124   CPS4I         1        604       605       705       704
        125   CPS4I         1        605       606       706       705
        126   CPS4I         1        606       607       707       706
        127   CPS4I         1        607       608       708       707
        128   CPS4I         1        608       609       709       708
        129   CPS4I         1        609       610       710       709
        130   CPS4I         1        610       611       711       710
        131   CPS4I         1        611       612       712       711
        132   CPS4I         1        612       613       713       712
        133   CPS4I         1        613       614       714       713
        134   CPS4I         1        614       615       715       714
        135   CPS4I         1        615       616       716       715
        136   CPS4I         1        616       617       717       716
        137   CPS4I         1        617       618       718       717
        138   CPS4I         1        618       619       719       718
        139   CPS4I         1        619       620       720       719
        140   CPS4I         1        620       621       721       720
        141   CPS4I         1        701       702       802       801
        142   CPS4I         1        702       703       803       802
        143   CPS4I         1        703       704       804       803
        144   CPS4I         1        704       705       805       804
        145   CPS4I         1        705       706       806       805
        146   CPS4I         1        706       707       807       806
        147   CPS4I         1        707       708       808       807
        148   CPS4I         1        708       709       809       808
        149   CPS4I         1        709       710       810       809
        150   CPS4I         1        710       711       811       810
        151   CPS4I         1        711       712       812       811
        152   CPS4I         1        712       713       813       812
        153   CPS4I         1        713       714       814       813
        154   CPS4I         1        714       715       815       814
        155   CPS4I         1        715       716       816       815
        156   CPS4I         1        716       717       817       816
        157   CPS4I         1        717       718       818       817
        158   CPS4I         1        718       719       819       818
        159   CPS4I         1        719       720       820       819
        160   CPS4I         1        720       721       821       820
        161   CPS4I         1        801       802       902       901
        162   CPS4I         1        802       803       903       902
        163   CPS4I         1        803       804       904       903
        164   CPS4I         1        804       805       905       904
        165   CPS4I         1        805       806       906       905
        166   CPS4I         1        806       807       907       906
        167   CPS4I         1        807       808       908       907
        168   CPS4I         1        808       809       909       908
        169   CPS4I         1        809       810       910       909
        170   CPS4I         1        810       811       911       910
        171   CPS4I         1        811       812       912       911
        172   CPS4I         1        812       813       913       912
        173   CPS4I         1        813       814       914       913
        174   CPS4I         1        814       815       915       914
        175   CPS4I         1        815       816       916       915
        176   CPS4I         1        816       817       917       916
        177   CPS4I         1        817       818       918       917
        178   CPS4I         1        818       819       919       918
        179   CPS4I         1        819       820       920       919
        180   CPS4I         1        820       821       921       920
        181   CPS4I         1        901       902      1002      1001
        182   CPS4I         1        902       903      1003      1002
        183   CPS4I         1        903       904      1004      1003
        184   CPS4I         1        904       905      1005      1004
        185   CPS4I         1        905       906      1006      1005
        186   CPS4I         1        906       907      1007      1006
        187   CPS4I         1        907       908      1008      1007
        188   CPS4I         1        908       909      1009      1008
        189   CPS4I         1        909       910      1010      1009
        190   CPS4I         1        910       911      1011      1010
        191   CPS4I         1        911       912      1012      1011
        192   CPS4I         1        912       913      1013      1012
        193   CPS4I         1        913       914      1014      1013
        194   CPS4I         1        914       915      1015      1014
        195   CPS4I         1        915       916      1016      1015
        196   CPS4I         1        916       917      1017      1016
        197   CPS4I         1        917       918      1018      1017
        198   CPS4I         1        918       919      1019      1018
        199   CPS4I         1        919       920      1020      1019
        200   CPS4I         1        920       921      1021      1020
        201   CPS4I         1       1001      1002      1102      1101
        202   CPS4I         1       1002      1003      1103      1102
        203   CPS4I         1       1003      1004      1104      1103
        204   CPS4I         1       1004      1005      1105      1104
        205   CPS4I         1       1005      1006      1106      1105
        206   CPS4I         1       1006      1007      1107      1106
        207   CPS4I         1       1007      1008      1108      1107
        208   CPS4I         1       1008      1009      1109      1108
        209   CPS4I         1       1009      1010      1110      1109
        210   CPS4I         1       1010      1011      1111      1110
        211   CPS4I         1       1011      1012      1112      1111
        212   CPS4I         1       1012      1013      1113      1112
        213   CPS4I         1       1013      1014      1114      1113
        214   CPS4I         1       1014      1015      1115      1114
        215   CPS4I         1       1015      1016      1116      1115
        216   CPS4I         1       1016      1017      1117      1116
        217   CPS4I         1       1017      1018      1118      1117
        218   CPS4I         1       1018      1019      1119      1118
        219   CPS4I         1       1019      1020      1120      1119
        220   CPS4I         1       1020      1021      1121      1120
        221   CPS4I         1       1101      1102      1202      1201
        222   CPS4I         1       1102      1103      1203      1202
        223   CPS4I         1       1103      1104      1204      1203
        224   CPS4I         1       1104      1105      1205      1204
        225   CPS4I         1       1105      1106      1206      1205
        226   CPS4I         1       1106      1107      1207      1206
        227   CPS4I         1       1107      1108      1208      1207
        228   CPS4I         1       1108      1109      1209      1208
        229   CPS4I         1       1109      1110      1210      1209
        230   CPS4I         1       1110      1111      1211      1210
        231   CPS4I         1       1111      1112      1212      1211
        232   CPS4I         1       1112      1113      1213      1212
        233   CPS4I         1       1113      1114      1214      1213
        234   CPS4I         1       1114      1115      1215      1214
        235   CPS4I         1       1115      1116      1216      1215
        236   CPS4I         1       1116      1117      1217      1216
        237   CPS4I         1       1117      1118      1218      1217
        238   CPS4I         1       1118      1119      1219      1218
        239   CPS4I         1       1119      1120      1220      1219
        240   CPS4I         1       1120      1121      1221      1220
        241   CPS4I         1       1201      1202      1302      1301
        242   CPS4I         1       1202      1203      1303      1302
        243   CPS4I         1       1203      1204      1304      1303
        244   CPS4I         1       1204      1205      1305      1304
        245   CPS4I         1       1205      1206      1306      1305
        246   CPS4I         1       1206      1207      1307      1306
        247   CPS4I         1       1207      1208      1308      1307
        248   CPS4I         1       1208      1209      1309      1308
        249   CPS4I         1       1209      1210      1310      1309
        250   CPS4I         1       1210      1211      1311      1310
        251   CPS4I         1       1211      1212      1312      1311
        252   CPS4I         1       1212      1213      1313      1312
        253   CPS4I         1       1213      1214      1314      1313
        254   CPS4I         1       1214      1215      1315      1314
        255   CPS4I         1       1215      1216      1316      1315
        256   CPS4I         1       1216      1217      1317      1316
        257   CPS4I         1       1217      1218      1318      1317
        258   CPS4I         1       1218      1219      1319      1318
        259   CPS4I         1       1219      1220      1320      1319
        260   CPS4I         1       1220      1221      1321      1320
        261   CPS4I         1       1301      1302      1402      1401
        262   CPS4I         1       1302      1303      1403      1402
        263   CPS4I         1       1303      1304      1404      1403
        264   CPS4I         1       1304      1305      1405      1404
        265   CPS4I         1       1305      1306      1406      1405
        266   CPS4I         1       1306      1307      1407      1406
        267   CPS4I         1       1307      1308      1408      1407
        268   CPS4I         1       1308      1309      1409      1408
        269   CPS4I         1       1309      1310      1410      1409
        270   CPS4I         1       1310      1311      1411      1410
        271   CPS4I         1       1311      1312      1412      1411
        272   CPS4I         1       1312      1313      1413      1412
        273   CPS4I         1       1313      1314      1414      1413
        274   CPS4I         1       1314      1315      1415      1414
        275   CPS4I         1       1315      1316      1416      1415
        276   CPS4I         1       1316      1317      1417      1416
        277   CPS4I         1       1317      1318      1418      1417
        278   CPS4I         1       1318      1319      1419      1418
        279   CPS4I         1       1319      1320      1420      1419
        280   CPS4I         1       1320      1321      1421      1420
        281   CPS4I         1       1401      1402      1502      1501
        282   CPS4I         1       1402      1403      1503      1502
        283   CPS4I         1       1403      1404      1504      1503
        284   CPS4I         1       1404      1405      1505      1504
        285   CPS4I         1       1405      1406      1506      1505
        286   CPS4I         1       1406      1407      1507      1506
        287   CPS4I         1       1407      1408      1508      1507
        288   CPS4I         1       1408      1409      1509      1508
        289   CPS4I         1       1409      1410      1510      1509
        290   CPS4I         1       1410      1411      1511      1510
        291   CPS4I         1       1411      1412      1512      1511
        292   CPS4I         1       1412      1413      1513      1512
        293   CPS4I         1       1413      1414      1514      1513
        294   CPS4I         1       1414      1415      1515      1514
        295   CPS4I         1       1415      1416      1516      1515
        296   CPS4I         1       1416      1417      1517      1516
        297   CPS4I         1       1417      1418      1518      1517
        298   CPS4I         1       1418      1419      1519      1518
        299   CPS4I         1       1419      1420      1520      1519
        300   CPS4I         1       1420      1421      1521      1520
        301   CPS4I         1       1501      1502      1602      1601
        302   CPS4I         1       1502      1503      1603      1602
        303   CPS4I         1       1503      1504      1604      1603
        304   CPS4I         1       1504      1505      1605      1604
        305   CPS4I         1       1505      1506      1606      1605
        306   CPS4I         1       1506      1507      1607      1606
        307   CPS4I         1       1507      1508      1608      1607
        308   CPS4I         1       1508      1509      1609      1608
        309   CPS4I         1       1509      1510      1610      1609
        310   CPS4I         1       1510      1511      1611      1610
        311   CPS4I         1       1511      1512      1612      1611
        312   CPS4I         1       1512      1513      1613      1612
        313   CPS4I         1       1513      1514      1614      1613
        314   CPS4I         1       1514      1515      1615      1614
        315   CPS4I         1       1515      1516      1616      1615
        316   CPS4I         1       1516      1517      1617      1616
        317   CPS4I         1       1517      1518      1618      1617
        318   CPS4I         1       1518      1519      1619      1618
        319   CPS4I         1       1519      1520      1620      1619
        320   CPS4I         1       1520      1521      1621      1620
        321   CPS4I         1       1601      1602      1702      1701
        322   CPS4I         1       1602      1603      1703      1702
        323   CPS4I         1       1603      1604      1704      1703
        324   CPS4I         1       1604      1605      1705      1704
        325   CPS4I         1       1605      1606      1706      1705
        326   CPS4I         1       1606      1607      1707      1706
        327   CPS4I         1       1607      1608      1708      1707
        328   CPS4I         1       1608      1609      1709      1708
        329   CPS4I         1       1609      1610      1710      1709
        330   CPS4I         1       1610      1611      1711      1710
        331   CPS4I         1       1611      1612      1712      1711
        332   CPS4I         1       1612      1613      1713      1712
        333   CPS4I         1       1613      1614      1714      1713
        334   CPS4I         1       1614      1615      1715      1714
        335   CPS4I         1       1615      1616      1716      1715
        336   CPS4I         1       1616      1617      1717      1716
        337   CPS4I         1       1617      1618      1718      1717
        338   CPS4I         1       1618      1619      1719      1718
        339   CPS4I         1       1619      1620      1720      1719
        340   CPS4I         1       1620      1621      1721      1720
        341   CPS4I         1       1701      1702      1802      1801
        342   CPS4I         1       1702      1703      1803      1802
        343   CPS4I         1       1703      1704      1804      1803
        344   CPS4I         1       1704      1705      1805      1804
        345   CPS4I         1       1705      1706      1806      1805
        346   CPS4I         1       1706      1707      1807      1806
        347   CPS4I         1       1707      1708      1808      1807
        348   CPS4I         1       1708      1709      1809      1808
        349   CPS4I         1       1709      1710      1810      1809
        350   CPS4I         1       1710      1711      1811      1810
        351   CPS4I         1       1711      1712      1812      1811
        352   CPS4I         1       1712      1713      1813      1812
        353   CPS4I         1       1713      1714      1814      1813
        354   CPS4I         1       1714      1715      1815      1814
        355   CPS4I         1       1715      1716      1816      1815
        356   CPS4I         1       1716      1717      1817      1816
        357   CPS4I         1       1717      1718      1818      1817
        358   CPS4I         1       1718      1719      1819      1818
        359   CPS4I         1       1719      1720      1820      1819
        360   CPS4I         1       1720      1721      1821      1820
        361   CPS4I         1       1801      1802      1902      1901
        362   CPS4I         1       1802      1803      1903      1902
        363   CPS4I         1       1803      1804      1904      1903
        364   CPS4I         1       1804      1805      1905      1904
        365   CPS4I         1       1805      1806      1906      1905
        366   CPS4I         1       1806      1807      1907      1906
        367   CPS4I         1       1807      1808      1908      1907
        368   CPS4I         1       1808      1809      1909      1908
        369   CPS4I         1       1809      1810      1910      1909
        370   CPS4I         1       1810      1811      1911      1910
        371   CPS4I         1       1811      1812      1912      1911
        372   CPS4I         1       1812      1813      1913      1912
        373   CPS4I         1       1813      1814      1914      1913
        374   CPS4I         1       1814      1815      1915      1914
        375   CPS4I         1       1815      1816      1916      1915
        376   CPS4I         1       1816      1817      1917      1916
        377   CPS4I         1       1817      1818      1918      1917
        378   CPS4I         1       1818      1819      1919      1918
        379   CPS4I         1       1819      1820      1920      1919
        380   CPS4I         1       1820      1821      1921      1920
        381   CPS4I         1       1901      1902      2002      2001
        382   CPS4I         1       1902      1903      2003      2002
        383   CPS4I         1       1903      1904      2004      2003
        384   CPS4I         1       1904      1905      2005      2004
        385   CPS4I         1       1905      1906      2006      2005
        386   CPS4I         1       1906      1907      2007      2006
        387   CPS4I         1       1907      1908      2008      2007
        388   CPS4I         1       1908      1909      2009      2008
        389   CPS4I         1       1909      1910      2010      2009
        390   CPS4I         1       1910      1911      2011      2010
        391   CPS4I         1       1911      1912      2012      2011
        392   CPS4I         1       1912      1913      2013      2012
        393   CPS4I         1       1913      1914      2014      2013
        394   CPS4I         1       1914      1915      2015      2014
        395   CPS4I         1       1915      1916      2016      2015
        396   CPS4I         1       1916      1917      2017      2016
        397   CPS4I         1       1917      1918      2018      2017
        398   CPS4I         1       1918      1919      2019      2018
        399   CPS4I         1       1919      1920      2020      2019
        400   CPS4I         1       1920      1921      2021      2020





                                S O L I D   S E C T I O N (S)




  PROPERTY NUMBER         1

     MATERIAL NAME                     STEEL                                                                           
     ATTRIBUTES                         0.20000       0.0000       0.0000    

     HOURGLASS CONTROL STIFFNESS    3.84615E+08

     (USED WITH LOWER ORDER REDUCED INTEGRATED SOLID ELEMENTS LIKE CPS4R,CPE4RH,C3D8R)





                         P H Y S I C A L   C O N S T A N T S






                         M A T E R I A L   D E S C R I P T I O N




  MATERIAL NAME: STEEL                                                                           


     ELASTIC         YOUNG'S    POISSON'S
                     MODULUS      RATIO

                    2.00000E+11 0.30000    





                                 E L E M E N T   S E T S


  SET    EALL                                                                            
  MEMBERS                    1         2         3         4         5         6         7         8         9        10        11        12
                            13        14        15        16        17        18        19        20        21        22        23        24
                            25        26        27        28        29        30        31        32        33        34        35        36
                            37        38        39        40        41        42        43        44        45        46        47        48
                            49        50        51        52        53        54        55        56        57        58        59        60
                            61        62        63        64        65        66        67        68        69        70        71        72
                            73        74        75        76        77        78        79        80        81        82        83        84
                            85        86        87        88        89        90        91        92        93        94        95        96
                            97        98        99       100       101       102       103       104       105       106       107       108
                           109       110       111       112       113       114       115       116       117       118       119       120
                           121       122       123       124       125       126       127       128       129       130       131       132
                           133       134       135       136       137       138       139       140       141       142       143       144
                           145       146       147       148       149       150       151       152       153       154       155       156
                           157       158       159       160       161       162       163       164       165       166       167       168
                           169       170       171       172       173       174       175       176       177       178       179       180
                           181       182       183       184       185       186       187       188       189       190       191       192
                           193       194       195       196       197       198       199       200       201       202       203       204
                           205       206       207       208       209       210       211       212       213       214       215       216
                           217       218       219       220       221       222       223       224       225       226       227       228
                           229       230       231       232       233       234       235       236       237       238       239       240
                           241       242       243       244       245       246       247       248       249       250       251       252
                           253       254       255       256       257       258       259       260       261       262       263       264
                           265       266       267       268       269       270       271       272       273       274       275       276
                           277       278       279       280       281       282       283       284       285       286       287       288
                           289       290       291       292       293       294       295       296       297       298       299       300
                           301       302       303       304       305       306       307       308       309       310       311       312
                           313       314       315       316       317       318       319       320       321       322       323       324
                           325       326       327       328       329       330       331       332       333       334       335       336
                           337       338       339       340       341       342       343       344       345       346       347       348
                           349       350       351       352       353       354       355       356       357       358       359       360
                           361       362       363       364       365       366       367       368       369       370       371       372
                           373       374       375       376       377       378       379       380       381       382       383       384
                           385       386       387       388       389       390       391       392       393       394       395       396
                           397       398       399       400

  SET    TOP                                                                             
  MEMBERS                  381       382       383       384       385       386       387       388       389       390       391       392
                           393       394       395       396       397       398       399       400



                                    N O D E   S E T S


  SET    SYM                                                                             
  MEMBERS                   21       121       221       321       421       521       621       721       821       921      1021      1121
                          1221      1321      1421      1521      1621      1721      1821      1921      2021

  SET    BOTTOM                                                                          
  MEMBERS                    1         2         3         4         5         6         7         8         9        10        11        12
                            13        14        15        16        17        18        19        20        21

  SET    TOP                                                                             
  MEMBERS                 2001      2002      2003      2004      2005      2006      2007      2008      2009      2010      2011      2012
                          2013      2014      2015      2016      2017      2018      2019      2020      2021





                                 N O D E   D E F I N I T I O N S

       NODE           COORDINATES                       SINGLE POINT CONSTRAINTS 
      NUMBER                                              TYPE    PLUS    DOF

          1     0.0000       0.0000       0.0000                    2                                                  
          2    0.12500       0.0000       0.0000                                                                       
          3    0.25000       0.0000       0.0000                                                                       
          4    0.37500       0.0000       0.0000                                                                       
          5    0.50000       0.0000       0.0000                                                                       
          6    0.62500       0.0000       0.0000                                                                       
          7    0.75000       0.0000       0.0000                                                                       
          8    0.87500       0.0000       0.0000                                                                       
          9     1.0000       0.0000       0.0000                                                                       
         10     1.1250       0.0000       0.0000                                                                       
         11     1.2500       0.0000       0.0000                                                                       
         12     1.3750       0.0000       0.0000                                                                       
         13     1.5000       0.0000       0.0000                                                                       
         14     1.6250       0.0000       0.0000                                                                       
         15     1.7500       0.0000       0.0000                                                                       
         16     1.8750       0.0000       0.0000                                                                       
         17     2.0000       0.0000       0.0000                                                                       
         18     2.1250       0.0000       0.0000                                                                       
         19     2.2500       0.0000       0.0000                                                                       
         20     2.3750       0.0000       0.0000                                                                       
         21     2.5000       0.0000       0.0000                  1                                                    
        101     0.0000      5.00000E-02   0.0000                                                                       
        102    0.12500      5.00000E-02   0.0000                                                                       
        103    0.25000      5.00000E-02   0.0000                                                                       
        104    0.37500      5.00000E-02   0.0000                                                                       
        105    0.50000      5.00000E-02   0.0000                                                                       
        106    0.62500      5.00000E-02   0.0000                                                                       
        107    0.75000      5.00000E-02   0.0000                                                                       
        108    0.87500      5.00000E-02   0.0000                                                                       
        109     1.0000      5.00000E-02   0.0000                                                                       
        110     1.1250      5.00000E-02   0.0000                                                                       
        111     1.2500      5.00000E-02   0.0000                                                                       
        112     1.3750      5.00000E-02   0.0000                                                                       
        113     1.5000      5.00000E-02   0.0000                                                                       
        114     1.6250      5.00000E-02   0.0000                                                                       
        115     1.7500      5.00000E-02   0.0000                                                                       
        116     1.8750      5.00000E-02   0.0000                                                                       
        117     2.0000      5.00000E-02   0.0000                                                                       
        118     2.1250      5.00000E-02   0.0000                                                                       
        119     2.2500      5.00000E-02   0.0000                                                                       
        120     2.3750      5.00000E-02   0.0000                                                                       
        121     2.5000      5.00000E-02   0.0000                  1                                                    
        201     0.0000      0.10000       0.0000                                                                       
        202    0.12500      0.10000       0.0000                                                                       
        203    0.25000      0.10000       0.0000                                                                       
        204    0.37500      0.10000       0.0000                                                                       
        205    0.50000      0.10000       0.0000                                                                       
        206    0.62500      0.10000       0.0000                                                                       
        207    0.75000      0.10000       0.0000                                                                       
        208    0.87500      0.10000       0.0000                                                                       
        209     1.0000      0.10000       0.0000                                                                       
        210     1.1250      0.10000       0.0000                                                                       
        211     1.2500      0.10000       0.0000                                                                       
        212     1.3750      0.10000       0.0000                                                                       
        213     1.5000      0.10000       0.0000                                                                       
        214     1.6250      0.10000       0.0000                                                                       
        215     1.7500      0.10000       0.0000                                                                       
        216     1.8750      0.10000       0.0000                                                                       
        217     2.0000      0.10000       0.0000                                                                       
        218     2.1250      0.10000       0.0000                                                                       
        219     2.2500      0.10000       0.0000                                                                       
        220     2.3750      0.10000       0.0000                                                                       
        221     2.5000      0.10000       0.0000                  1                                                    
        301     0.0000      0.15000       0.0000                                                                       
        302    0.12500      0.15000       0.0000                                                                       
        303    0.25000      0.15000       0.0000                                                                       
        304    0.37500      0.15000       0.0000                                                                       
        305    0.50000      0.15000       0.0000                                                                       
        306    0.62500      0.15000       0.0000                                                                       
        307    0.75000      0.15000       0.0000                                                                       
        308    0.87500      0.15000       0.0000                                                                       
        309     1.0000      0.15000       0.0000                                                                       
        310     1.1250      0.15000       0.0000                                                                       
        311     1.2500      0.15000       0.0000                                                                       
        312     1.3750      0.15000       0.0000                                                                       
        313     1.5000      0.15000       0.0000                                                                       
        314     1.6250      0.15000       0.0000                                                                       
        315     1.7500      0.15000       0.0000                                                                       
        316     1.8750      0.15000       0.0000                                                                       
        317     2.0000      0.15000       0.0000                                                                       
        318     2.1250      0.15000       0.0000                                                                       
        319     2.2500      0.15000       0.0000                                                                       
        320     2.3750      0.15000       0.0000                                                                       
        321     2.5000      0.15000       0.0000                  1                                                    
        401     0.0000      0.20000       0.0000                                                                       
        402    0.12500      0.20000       0.0000                                                                       
        403    0.25000      0.20000       0.0000                                                                       
        404    0.37500      0.20000       0.0000                                                                       
        405    0.50000      0.20000       0.0000                                                                       
        406    0.62500      0.20000       0.0000                                                                       
        407    0.75000      0.20000       0.0000                                                                       
        408    0.87500      0.20000       0.0000                                                                       
        409     1.0000      0.20000       0.0000                                                                       
        410     1.1250      0.20000       0.0000                                                                       
        411     1.2500      0.20000       0.0000                                                                       
        412     1.3750      0.20000       0.0000                                                                       
        413     1.5000      0.20000       0.0000                                                                       
        414     1.6250      0.20000       0.0000                                                                       
        415     1.7500      0.20000       0.0000                                                                       
        416     1.8750      0.20000       0.0000                                                                       
        417     2.0000      0.20000       0.0000                                                                       
        418     2.1250      0.20000       0.0000                                                                       
        419     2.2500      0.20000       0.0000                                                                       
        420     2.3750      0.20000       0.0000                                                                       
        421     2.5000      0.20000       0.0000                  1                                                    
        501     0.0000      0.25000       0.0000                                                                       
        502    0.12500      0.25000       0.0000                                                                       
        503    0.25000      0.25000       0.0000                                                                       
        504    0.37500      0.25000       0.0000                                                                       
        505    0.50000      0.25000       0.0000                                                                       
        506    0.62500      0.25000       0.0000                                                                       
        507    0.75000      0.25000       0.0000                                                                       
        508    0.87500      0.25000       0.0000                                                                       
        509     1.0000      0.25000       0.0000                                                                       
        510     1.1250      0.25000       0.0000                                                                       
        511     1.2500      0.25000       0.0000                                                                       
        512     1.3750      0.25000       0.0000                                                                       
        513     1.5000      0.25000       0.0000                                                                       
        514     1.6250      0.25000       0.0000                                                                       
        515     1.7500      0.25000       0.0000                                                                       
        516     1.8750      0.25000       0.0000                                                                       
        517     2.0000      0.25000       0.0000                                                                       
        518     2.1250      0.25000       0.0000                                                                       
        519     2.2500      0.25000       0.0000                                                                       
        520     2.3750      0.25000       0.0000                                                                       
        521     2.5000      0.25000       0.0000                  1                                                    
        601     0.0000      0.30000       0.0000                                                                       
        602    0.12500      0.30000       0.0000                                                                       
        603    0.25000      0.30000       0.0000                                                                       
        604    0.37500      0.30000       0.0000                                                                       
        605    0.50000      0.30000       0.0000                                                                       
        606    0.62500      0.30000       0.0000                                                                       
        607    0.75000      0.30000       0.0000                                                                       
        608    0.87500      0.30000       0.0000                                                                       
        609     1.0000      0.30000       0.0000                                                                       
        610     1.1250      0.30000       0.0000                                                                       
        611     1.2500      0.30000       0.0000                                                                       
        612     1.3750      0.30000       0.0000                                                                       
        613     1.5000      0.30000       0.0000                                                                       
        614     1.6250      0.30000       0.0000                                                                       
        615     1.7500      0.30000       0.0000                                                                       
        616     1.8750      0.30000       0.0000                                                                       
        617     2.0000      0.30000       0.0000                                                                       
        618     2.1250      0.30000       0.0000                                                                       
        619     2.2500      0.30000       0.0000                                                                       
        620     2.3750      0.30000       0.0000                                                                       
        621     2.5000      0.30000       0.0000                  1                                                    
        701     0.0000      0.35000       0.0000                                                                       
        702    0.12500      0.35000       0.0000                                                                       
        703    0.25000      0.35000       0.0000                                                                       
        704    0.37500      0.35000       0.0000                                                                       
        705    0.50000      0.35000       0.0000                                                                       
        706    0.62500      0.35000       0.0000                                                                       
        707    0.75000      0.35000       0.0000                                                                       
        708    0.87500      0.35000       0.0000                                                                       
        709     1.0000      0.35000       0.0000                                                                       
        710     1.1250      0.35000       0.0000                                                                       
        711     1.2500      0.35000       0.0000                                                                       
        712     1.3750      0.35000       0.0000                                                                       
        713     1.5000      0.35000       0.0000                                                                       
        714     1.6250      0.35000       0.0000                                                                       
        715     1.7500      0.35000       0.0000                                                                       
        716     1.8750      0.35000       0.0000                                                                       
        717     2.0000      0.35000       0.0000                                                                       
        718     2.1250      0.35000       0.0000                                                                       
        719     2.2500      0.35000       0.0000                                                                       
        720     2.3750      0.35000       0.0000                                                                       
        721     2.5000      0.35000       0.0000                  1                                                    
        801     0.0000      0.40000       0.0000                                                                       
        802    0.12500      0.40000       0.0000                                                                       
        803    0.25000      0.40000       0.0000                                                                       
        804    0.37500      0.40000       0.0000                                                                       
        805    0.50000      0.40000       0.0000                                                                       
        806    0.62500      0.40000       0.0000                                                                       
        807    0.75000      0.40000       0.0000                                                                       
        808    0.87500      0.40000       0.0000                                                                       
        809     1.0000      0.40000       0.0000                                                                       
        810     1.1250      0.40000       0.0000                                                                       
        811     1.2500      0.40000       0.0000                                                                       
        812     1.3750      0.40000       0.0000                                                                       
        813     1.5000      0.40000       0.0000                                                                       
        814     1.6250      0.40000       0.0000                                                                       
        815     1.7500      0.40000       0.0000                                                                       
        816     1.8750      0.40000       0.0000                                                                       
        817     2.0000      0.40000       0.0000                                                                       
        818     2.1250      0.40000       0.0000                                                                       
        819     2.2500      0.40000       0.0000                                                                       
        820     2.3750      0.40000       0.0000                                                                       
        821     2.5000      0.40000       0.0000                  1                                                    
        901     0.0000      0.45000       0.0000                                                                       
        902    0.12500      0.45000       0.0000                                                                       
        903    0.25000      0.45000       0.0000                                                                       
        904    0.37500      0.45000       0.0000                                                                       
        905    0.50000      0.45000       0.0000                                                                       
        906    0.62500      0.45000       0.0000                                                                       
        907    0.75000      0.45000       0.0000                                                                       
        908    0.87500      0.45000       0.0000                                                                       
        909     1.0000      0.45000       0.0000                                                                       
        910     1.1250      0.45000       0.0000                                                                       
        911     1.2500      0.45000       0.0000                                                                       
        912     1.3750      0.45000       0.0000                                                                       
        913     1.5000      0.45000       0.0000                                                                       
        914     1.6250      0.45000       0.0000                                                                       
        915     1.7500      0.45000       0.0000                                                                       
        916     1.8750      0.45000       0.0000                                                                       
        917     2.0000      0.45000       0.0000                                                                       
        918     2.1250      0.45000       0.0000                                                                       
        919     2.2500      0.45000       0.0000                                                                       
        920     2.3750      0.45000       0.0000                                                                       
        921     2.5000      0.45000       0.0000                  1                                                    
       1001     0.0000      0.50000       0.0000                                                                       
       1002    0.12500      0.50000       0.0000                                                                       
       1003    0.25000      0.50000       0.0000                                                                       
       1004    0.37500      0.50000       0.0000                                                                       
       1005    0.50000      0.50000       0.0000                                                                       
       1006    0.62500      0.50000       0.0000                                                                       
       1007    0.75000      0.50000       0.0000                                                                       
       1008    0.87500      0.50000       0.0000                                                                       
       1009     1.0000      0.50000       0.0000                                                                       
       1010     1.1250      0.50000       0.0000                                                                       
       1011     1.2500      0.50000       0.0000                                                                       
       1012     1.3750      0.50000       0.0000                                                                       
       1013     1.5000      0.50000       0.0000                                                                       
       1014     1.6250      0.50000       0.0000                                                                       
       1015     1.7500      0.50000       0.0000                                                                       
       1016     1.8750      0.50000       0.0000                                                                       
       1017     2.0000      0.50000       0.0000                                                                       
       1018     2.1250      0.50000       0.0000                                                                       
       1019     2.2500      0.50000       0.0000                                                                       
       1020     2.3750      0.50000       0.0000                                                                       
       1021     2.5000      0.50000       0.0000                  1                                                    
       1101     0.0000      0.55000       0.0000                                                                       
       1102    0.12500      0.55000       0.0000                                                                       
       1103    0.25000      0.55000       0.0000                                                                       
       1104    0.37500      0.55000       0.0000                                                                       
       1105    0.50000      0.55000       0.0000                                                                       
       1106    0.62500      0.55000       0.0000                                                                       
       1107    0.75000      0.55000       0.0000                                                                       
       1108    0.87500      0.55000       0.0000                                                                       
       1109     1.0000      0.55000       0.0000                                                                       
       1110     1.1250      0.55000       0.0000                                                                       
       1111     1.2500      0.55000       0.0000                                                                       
       1112     1.3750      0.55000       0.0000                                                                       
       1113     1.5000      0.55000       0.0000                                                                       
       1114     1.6250      0.55000       0.0000                                                                       
       1115     1.7500      0.55000       0.0000                                                                       
       1116     1.8750      0.55000       0.0000                                                                       
       1117     2.0000      0.55000       0.0000                                                                       
       1118     2.1250      0.55000       0.0000                                                                       
       1119     2.2500      0.55000       0.0000                                                                       
       1120     2.3750      0.55000       0.0000                                                                       
       1121     2.5000      0.55000       0.0000                  1                                                    
       1201     0.0000      0.60000       0.0000                                                                       
       1202    0.12500      0.60000       0.0000                                                                       
       1203    0.25000      0.60000       0.0000                                                                       
       1204    0.37500      0.60000       0.0000                                                                       
       1205    0.50000      0.60000       0.0000                                                                       
       1206    0.62500      0.60000       0.0000                                                                       
       1207    0.75000      0.60000       0.0000                                                                       
       1208    0.87500      0.60000       0.0000                                                                       
       1209     1.0000      0.60000       0.0000                                                                       
       1210     1.1250      0.60000       0.0000                                                                       
       1211     1.2500      0.60000       0.0000                                                                       
       1212     1.3750      0.60000       0.0000                                                                       
       1213     1.5000      0.60000       0.0000                                                                       
       1214     1.6250      0.60000       0.0000                                                                       
       1215     1.7500      0.60000       0.0000                                                                       
       1216     1.8750      0.60000       0.0000                                                                       
       1217     2.0000      0.60000       0.0000                                                                       
       1218     2.1250      0.60000       0.0000                                                                       
       1219     2.2500      0.60000       0.0000                                                                       
       1220     2.3750      0.60000       0.0000                                                                       
       1221     2.5000      0.60000       0.0000                  1                                                    
       1301     0.0000      0.65000       0.0000                                                                       
       1302    0.12500      0.65000       0.0000                                                                       
       1303    0.25000      0.65000       0.0000                                                                       
       1304    0.37500      0.65000       0.0000                                                                       
       1305    0.50000      0.65000       0.0000                                                                       
[...]
  
  
  
  
                                       N O D E   O U T P U T
  
  
  
  
   THE FOLLOWING TABLE IS PRINTED FOR ALL NODES
  
       NODE FOOT-   U1          U2       
            NOTE
  
          1     -9.6939E-05   0.000     
          2     -8.8527E-05 -4.9376E-05 
          3     -8.2136E-05 -7.2812E-05 
          4     -7.9031E-05 -9.4988E-05 
          5     -7.5790E-05 -1.1558E-04 
          6     -7.2842E-05 -1.3518E-04 
          7     -6.9666E-05 -1.5396E-04 
          8     -6.6274E-05 -1.7187E-04 
          9     -6.2577E-05 -1.8886E-04 
         10     -5.8577E-05 -2.0485E-04 
         11     -5.4273E-05 -2.1974E-04 
         12     -4.9684E-05 -2.3346E-04 
         13     -4.4832E-05 -2.4593E-04 
         14     -3.9745E-05 -2.5708E-04 
         15     -3.4451E-05 -2.6686E-04 
         16     -2.8979E-05 -2.7522E-04 
         17     -2.3360E-05 -2.8212E-04 
         18     -1.7623E-05 -2.8751E-04 
         19     -1.1798E-05 -2.9139E-04 
         20     -5.9136E-06 -2.9372E-04 
         21       0.000     -2.9450E-04 
        101     -7.7765E-05 -8.2881E-06 
        102     -7.5381E-05 -4.8117E-05 
        103     -7.3530E-05 -7.3626E-05 
        104     -7.0264E-05 -9.5249E-05 
        105     -6.7868E-05 -1.1593E-04 
        106     -6.5163E-05 -1.3552E-04 
        107     -6.2383E-05 -1.5433E-04 
        108     -5.9335E-05 -1.7227E-04 
        109     -5.6031E-05 -1.8930E-04 
        110     -5.2447E-05 -2.0532E-04 
        111     -4.8595E-05 -2.2025E-04 
        112     -4.4486E-05 -2.3399E-04 
        113     -4.0143E-05 -2.4649E-04 
        114     -3.5589E-05 -2.5767E-04 
        115     -3.0850E-05 -2.6748E-04 
        116     -2.5951E-05 -2.7585E-04 
        117     -2.0920E-05 -2.8276E-04 
        118     -1.5783E-05 -2.8817E-04 
        119     -1.0566E-05 -2.9205E-04 
        120     -5.2962E-06 -2.9439E-04 
        121       0.000     -2.9517E-04 
        201     -6.5310E-05 -1.4681E-05 
        202     -6.3733E-05 -4.7550E-05 
        203     -6.3651E-05 -7.3762E-05 
        204     -6.1917E-05 -9.5573E-05 
        205     -5.9786E-05 -1.1616E-04 
        206     -5.7619E-05 -1.3583E-04 
        207     -5.5164E-05 -1.5465E-04 
        208     -5.2505E-05 -1.7263E-04 
        209     -4.9584E-05 -1.8969E-04 
        210     -4.6419E-05 -2.0574E-04 
        211     -4.3010E-05 -2.2070E-04 
        212     -3.9375E-05 -2.3447E-04 
        213     -3.5532E-05 -2.4700E-04 
        214     -3.1502E-05 -2.5820E-04 
        215     -2.7307E-05 -2.6802E-04 
        216     -2.2972E-05 -2.7642E-04 
        217     -1.8519E-05 -2.8334E-04 
        218     -1.3971E-05 -2.8876E-04 
        219     -9.3534E-06 -2.9265E-04 
        220     -4.6885E-06 -2.9499E-04 
        221       0.000     -2.9577E-04 
        301     -5.5080E-05 -1.9545E-05 
        302     -5.3791E-05 -4.7796E-05 
        303     -5.4069E-05 -7.3602E-05 
        304     -5.3390E-05 -9.5746E-05 
        305     -5.1886E-05 -1.1636E-04 
        306     -5.0092E-05 -1.3606E-04 
        307     -4.8054E-05 -1.5493E-04 
        308     -4.5757E-05 -1.7294E-04 
        309     -4.3233E-05 -1.9003E-04 
        310     -4.0477E-05 -2.0611E-04 
        311     -3.7509E-05 -2.2110E-04 
        312     -3.4340E-05 -2.3490E-04 
        313     -3.0989E-05 -2.4745E-04 
        314     -2.7475E-05 -2.5867E-04 
        315     -2.3817E-05 -2.6851E-04 
        316     -2.0036E-05 -2.7692E-04 
        317     -1.6152E-05 -2.8385E-04 
        318     -1.2186E-05 -2.8928E-04 
        319     -8.1583E-06 -2.9318E-04 
        320     -4.0894E-06 -2.9552E-04 
        321       0.000     -2.9630E-04 
        401     -4.6033E-05 -2.3295E-05 
        402     -4.4857E-05 -4.8512E-05 
        403     -4.5105E-05 -7.3470E-05 
        404     -4.4973E-05 -9.5774E-05 
        405     -4.4049E-05 -1.1649E-04 
        406     -4.2674E-05 -1.3624E-04 
        407     -4.1012E-05 -1.5515E-04 
        408     -3.9099E-05 -1.7320E-04 
        409     -3.6959E-05 -1.9032E-04 
        410     -3.4615E-05 -2.0644E-04 
        411     -3.2080E-05 -2.2145E-04 
        412     -2.9372E-05 -2.3527E-04 
        413     -2.6506E-05 -2.4784E-04 
        414     -2.3501E-05 -2.5908E-04 
        415     -2.0372E-05 -2.6893E-04 
        416     -1.7138E-05 -2.7735E-04 
        417     -1.3816E-05 -2.8430E-04 
        418     -1.0423E-05 -2.8973E-04 
        419     -6.9783E-06 -2.9364E-04 
        420     -3.4979E-06 -2.9598E-04 
        421       0.000     -2.9677E-04 
        501     -3.7650E-05 -2.6254E-05 
        502     -3.6570E-05 -4.9448E-05 
        503     -3.6689E-05 -7.3464E-05 
        504     -3.6803E-05 -9.5738E-05 
        505     -3.6318E-05 -1.1656E-04 
        506     -3.5347E-05 -1.3637E-04 
        507     -3.4055E-05 -1.5533E-04 
        508     -3.2513E-05 -1.7342E-04 
        509     -3.0759E-05 -1.9057E-04 
        510     -2.8819E-05 -2.0671E-04 
        511     -2.6714E-05 -2.2174E-04 
        512     -2.4461E-05 -2.3559E-04 
        513     -2.2075E-05 -2.4817E-04 
        514     -1.9571E-05 -2.5943E-04 
        515     -1.6966E-05 -2.6930E-04 
        516     -1.4272E-05 -2.7773E-04 
        517     -1.1505E-05 -2.8468E-04 
        518     -8.6802E-06 -2.9013E-04 
        519     -5.8112E-06 -2.9403E-04 
        520     -2.9129E-06 -2.9638E-04 
        521       0.000     -2.9717E-04 
        601     -2.9684E-05 -2.8636E-05 
        602     -2.8705E-05 -5.0450E-05 
        603     -2.8702E-05 -7.3587E-05 
        604     -2.8908E-05 -9.5697E-05 
        605     -2.8729E-05 -1.1657E-04 
        606     -2.8114E-05 -1.3645E-04 
        607     -2.7176E-05 -1.5546E-04 
        608     -2.5996E-05 -1.7359E-04 
        609     -2.4620E-05 -1.9078E-04 
        610     -2.3081E-05 -2.0694E-04 
        611     -2.1401E-05 -2.2200E-04 
        612     -1.9597E-05 -2.3586E-04 
        613     -1.7686E-05 -2.4846E-04 
        614     -1.5680E-05 -2.5973E-04 
        615     -1.3592E-05 -2.6960E-04 
        616     -1.1433E-05 -2.7805E-04 
        617     -9.2165E-06 -2.8501E-04 
        618     -6.9532E-06 -2.9046E-04 
        619     -4.6549E-06 -2.9437E-04 
        620     -2.3333E-06 -2.9672E-04 
        621       0.000     -2.9750E-04 
        701     -2.1996E-05 -3.0583E-05 
        702     -2.1122E-05 -5.1434E-05 
        703     -2.1036E-05 -7.3810E-05 
        704     -2.1264E-05 -9.5680E-05 
        705     -2.1292E-05 -1.1655E-04 
        706     -2.0978E-05 -1.3648E-04 
        707     -2.0371E-05 -1.5554E-04 
        708     -1.9539E-05 -1.7371E-04 
        709     -1.8534E-05 -1.9094E-04 
        710     -1.7389E-05 -2.0713E-04 
        711     -1.6129E-05 -2.2220E-04 
        712     -1.4772E-05 -2.3608E-04 
        713     -1.3331E-05 -2.4869E-04 
        714     -1.1818E-05 -2.5997E-04 
        715     -1.0243E-05 -2.6986E-04 
        716     -8.6158E-06 -2.7830E-04 
        717     -6.9449E-06 -2.8527E-04 
        718     -5.2391E-06 -2.9072E-04 
        719     -3.5073E-06 -2.9464E-04 
        720     -1.7580E-06 -2.9699E-04 
        721       0.000     -2.9778E-04 
        801     -1.4499E-05 -3.2187E-05 
        802     -1.3732E-05 -5.2357E-05 
        803     -1.3599E-05 -7.4098E-05 
        804     -1.3827E-05 -9.5697E-05 
        805     -1.3999E-05 -1.1653E-04 
        806     -1.3936E-05 -1.3649E-04 
        807     -1.3631E-05 -1.5559E-04 
        808     -1.3134E-05 -1.7380E-04 
        809     -1.2490E-05 -1.9106E-04 
        810     -1.1734E-05 -2.0727E-04 
        811     -1.0890E-05 -2.2236E-04 
        812     -9.9748E-06 -2.3625E-04 
        813     -9.0010E-06 -2.4888E-04 
        814     -7.9781E-06 -2.6016E-04 
        815     -6.9137E-06 -2.7005E-04 
        816     -5.8143E-06 -2.7851E-04 
        817     -4.6860E-06 -2.8548E-04 
        818     -3.5347E-06 -2.9093E-04 
        819     -2.3661E-06 -2.9485E-04 
        820     -1.1859E-06 -2.9720E-04 
        821       0.000     -2.9799E-04 
        901     -7.1326E-06 -3.3511E-05 
        902     -6.4713E-06 -5.3197E-05 
        903     -6.3237E-06 -7.4421E-05 
        904     -6.5494E-06 -9.5747E-05 
        905     -6.8295E-06 -1.1650E-04 
        906     -6.9760E-06 -1.3648E-04 
        907     -6.9474E-06 -1.5561E-04 
        908     -6.7689E-06 -1.7386E-04 
        909     -6.4775E-06 -1.9114E-04 
        910     -6.1045E-06 -2.0737E-04 
        911     -5.6724E-06 -2.2248E-04 
        912     -5.1968E-06 -2.3638E-04 
        913     -4.6880E-06 -2.4901E-04 
        914     -4.1531E-06 -2.6030E-04 
        915     -3.5970E-06 -2.7020E-04 
        916     -3.0234E-06 -2.7865E-04 
        917     -2.4357E-06 -2.8563E-04 
        918     -1.8366E-06 -2.9108E-04 
        919     -1.2291E-06 -2.9500E-04 
        920     -6.1597E-07 -2.9736E-04 
        921       0.000     -2.9814E-04 
       1001      1.4773E-07 -3.4599E-05 
       1002      7.0704E-07 -5.3945E-05 
       1003      8.4567E-07 -7.4755E-05 
       1004      6.1283E-07 -9.5822E-05 
       1005      2.4449E-07 -1.1648E-04 
       1006     -8.3394E-08 -1.3645E-04 
       1007     -3.0767E-07 -1.5561E-04 
       1008     -4.3271E-07 -1.7388E-04 
       1009     -4.8464E-07 -1.9118E-04 
       1010     -4.8937E-07 -2.0743E-04 
       1011     -4.6632E-07 -2.2255E-04 
       1012     -4.2834E-07 -2.3646E-04 
       1013     -3.8318E-07 -2.4909E-04 
       1014     -3.3513E-07 -2.6039E-04 
       1015     -2.8633E-07 -2.7029E-04 
       1016     -2.3768E-07 -2.7874E-04 
       1017     -1.8947E-07 -2.8572E-04 
       1018     -1.4171E-07 -2.9118E-04 
       1019     -9.4288E-08 -2.9509E-04 
       1020     -4.7091E-08 -2.9745E-04 
       1021       0.000     -2.9824E-04 
       1101      7.3786E-06 -3.5484E-05 
       1102      7.8412E-06 -5.4602E-05 
       1103      7.9535E-06 -7.5081E-05 
       1104      7.7011E-06 -9.5914E-05 
       1105      7.2525E-06 -1.1646E-04 
       1106      6.7624E-06 -1.3641E-04 
       1107      6.3039E-06 -1.5558E-04 
       1108      5.8883E-06 -1.7387E-04 
       1109      5.5010E-06 -1.9119E-04 
       1110      5.1228E-06 -2.0746E-04 
       1111      4.7390E-06 -2.2258E-04 
       1112      4.3403E-06 -2.3650E-04 
       1113      3.9221E-06 -2.4913E-04 
       1114      3.4833E-06 -2.6042E-04 
       1115      3.0247E-06 -2.7032E-04 
       1116      2.5483E-06 -2.7878E-04 
       1117      2.0569E-06 -2.8575E-04 
       1118      1.5533E-06 -2.9121E-04 
       1119      1.0406E-06 -2.9513E-04 
       1120      5.2181E-07 -2.9748E-04 
       1121       0.000     -2.9827E-04 
       1201      1.4591E-05 -3.6194E-05 
       1202      1.4963E-05 -5.5168E-05 
       1203      1.5037E-05 -7.5389E-05 
       1204      1.4752E-05 -9.6014E-05 
       1205      1.4225E-05 -1.1646E-04 
       1206      1.3584E-05 -1.3636E-04 
       1207      1.2905E-05 -1.5553E-04 
       1208      1.2209E-05 -1.7384E-04 
       1209      1.1493E-05 -1.9117E-04 
       1210      1.0744E-05 -2.0744E-04 
       1211      9.9544E-06 -2.2257E-04 
       1212      9.1188E-06 -2.3649E-04 
       1213      8.2365E-06 -2.4912E-04 
       1214      7.3097E-06 -2.6041E-04 
       1215      6.3425E-06 -2.7030E-04 
       1216      5.3399E-06 -2.7876E-04 
       1217      4.3077E-06 -2.8573E-04 
       1218      3.2516E-06 -2.9118E-04 
       1219      2.1777E-06 -2.9510E-04 
       1220      1.0918E-06 -2.9746E-04 
       1221       0.000     -2.9824E-04 
       1301      2.1811E-05 -3.6752E-05 
       1302      2.2100E-05 -5.5649E-05 
       1303      2.2127E-05 -7.5669E-05 
       1304      2.1799E-05 -9.6114E-05 
       1305      2.1191E-05 -1.1645E-04 
       1306      2.0406E-05 -1.3631E-04 
       1307      1.9515E-05 -1.5547E-04 
       1308      1.8546E-05 -1.7378E-04 
       1309      1.7505E-05 -1.9112E-04 
       1310      1.6387E-05 -2.0739E-04 
       1311      1.5191E-05 -2.2252E-04 
       1312      1.3917E-05 -2.3643E-04 
       1313      1.2569E-05 -2.4906E-04 
       1314      1.1152E-05 -2.6034E-04 
       1315      9.6735E-06 -2.7023E-04 
       1316      8.1425E-06 -2.7868E-04 
       1317      6.5672E-06 -2.8565E-04 
       1318      4.9565E-06 -2.9110E-04 
       1319      3.3191E-06 -2.9501E-04 
       1320      1.6640E-06 -2.9737E-04 
       1321       0.000     -2.9815E-04 
       1401      2.9063E-05 -3.7178E-05 
       1402      2.9276E-05 -5.6053E-05 
       1403      2.9252E-05 -7.5916E-05 
       1404      2.8873E-05 -9.6206E-05 
       1405      2.8180E-05 -1.1644E-04 
       1406      2.7254E-05 -1.3625E-04 
       1407      2.6155E-05 -1.5540E-04 
       1408      2.4917E-05 -1.7370E-04 
       1409      2.3552E-05 -1.9103E-04 
       1410      2.2064E-05 -2.0730E-04 
       1411      2.0460E-05 -2.2242E-04 
       1412      1.8745E-05 -2.3633E-04 
       1413      1.6927E-05 -2.4895E-04 
       1414      1.5017E-05 -2.6022E-04 
       1415      1.3024E-05 -2.7011E-04 
       1416      1.0961E-05 -2.7855E-04 
       1417      8.8398E-06 -2.8551E-04 
       1418      6.6711E-06 -2.9096E-04 
       1419      4.4670E-06 -2.9487E-04 
       1420      2.2394E-06 -2.9722E-04 
       1421       0.000     -2.9801E-04 
       1501      3.6364E-05 -3.7495E-05 
       1502      3.6513E-05 -5.6386E-05 
       1503      3.6435E-05 -7.6128E-05 
       1504      3.5999E-05 -9.6287E-05 
       1505      3.5219E-05 -1.1643E-04 
       1506      3.4152E-05 -1.3619E-04 
       1507      3.2848E-05 -1.5531E-04 
       1508      3.1341E-05 -1.7359E-04 
       1509      2.9650E-05 -1.9092E-04 
       1510      2.7790E-05 -2.0717E-04 
       1511      2.5773E-05 -2.2229E-04 
       1512      2.3612E-05 -2.3618E-04 
       1513      2.1321E-05 -2.4878E-04 
       1514      1.8912E-05 -2.6005E-04 
       1515      1.6401E-05 -2.6992E-04 
       1516      1.3802E-05 -2.7836E-04 
       1517      1.1130E-05 -2.8531E-04 
       1518      8.3987E-06 -2.9075E-04 
       1519      5.6236E-06 -2.9466E-04 
       1520      2.8191E-06 -2.9701E-04 
       1521       0.000     -2.9779E-04 
       1601      4.3731E-05 -3.7725E-05 
       1602      4.3826E-05 -5.6656E-05 
       1603      4.3698E-05 -7.6304E-05 
       1604      4.3206E-05 -9.6351E-05 
       1605      4.2339E-05 -1.1641E-04 
       1606      4.1129E-05 -1.3612E-04 
       1607      3.9616E-05 -1.5520E-04 
       1608      3.7835E-05 -1.7347E-04 
       1609      3.5814E-05 -1.9077E-04 
       1610      3.3576E-05 -2.0701E-04 
       1611      3.1141E-05 -2.2210E-04 
       1612      2.8529E-05 -2.3598E-04 
       1613      2.5758E-05 -2.4857E-04 
       1614      2.2846E-05 -2.5982E-04 
       1615      1.9811E-05 -2.6968E-04 
       1616      1.6670E-05 -2.7811E-04 
       1617      1.3441E-05 -2.8505E-04 
       1618      1.0142E-05 -2.9049E-04 
       1619      6.7909E-06 -2.9439E-04 
       1620      3.4042E-06 -2.9674E-04 
       1621       0.000     -2.9752E-04 
       1701      5.1172E-05 -3.7892E-05 
       1702      5.1227E-05 -5.6873E-05 
       1703      5.1059E-05 -7.6444E-05 
       1704      5.0518E-05 -9.6400E-05 
       1705      4.9566E-05 -1.1638E-04 
       1706      4.8212E-05 -1.3604E-04 
       1707      4.6484E-05 -1.5508E-04 
       1708      4.4422E-05 -1.7331E-04 
       1709      4.2062E-05 -1.9059E-04 
       1710      3.9437E-05 -2.0680E-04 
       1711      3.6576E-05 -2.2188E-04 
       1712      3.3505E-05 -2.3573E-04 
       1713      3.0247E-05 -2.4830E-04 
       1714      2.6825E-05 -2.5954E-04 
       1715      2.3259E-05 -2.6938E-04 
       1716      1.9570E-05 -2.7779E-04 
       1717      1.5779E-05 -2.8473E-04 
       1718      1.1906E-05 -2.9016E-04 
       1719      7.9711E-06 -2.9405E-04 
       1720      3.9958E-06 -2.9640E-04 
       1721       0.000     -2.9718E-04 
       1801      5.8685E-05 -3.8021E-05 
       1802      5.8720E-05 -5.7045E-05 
       1803      5.8535E-05 -7.6554E-05 
       1804      5.7964E-05 -9.6433E-05 
       1805      5.6934E-05 -1.1635E-04 
       1806      5.5429E-05 -1.3594E-04 
       1807      5.3475E-05 -1.5494E-04 
       1808      5.1119E-05 -1.7313E-04 
       1809      4.8408E-05 -1.9037E-04 
       1810      4.5386E-05 -2.0656E-04 
       1811      4.2089E-05 -2.2160E-04 
       1812      3.8550E-05 -2.3543E-04 
       1813      3.4798E-05 -2.4798E-04 
       1814      3.0857E-05 -2.5920E-04 
       1815      2.6752E-05 -2.6903E-04 
       1816      2.2507E-05 -2.7742E-04 
       1817      1.8146E-05 -2.8434E-04 
       1818      1.3691E-05 -2.8976E-04 
       1819      9.1664E-06 -2.9365E-04 
       1820      4.5949E-06 -2.9599E-04 
       1821       0.000     -2.9677E-04 
       1901      6.6255E-05 -3.8138E-05 
       1902      6.6300E-05 -5.7184E-05 
       1903      6.6142E-05 -7.6642E-05 
       1904      6.5577E-05 -9.6454E-05 
       1905      6.4476E-05 -1.1630E-04 
       1906      6.2811E-05 -1.3583E-04 
       1907      6.0616E-05 -1.5477E-04 
       1908      5.7948E-05 -1.7291E-04 
       1909      5.4869E-05 -1.9011E-04 
       1910      5.1436E-05 -2.0626E-04 
       1911      4.7691E-05 -2.2127E-04 
       1912      4.3675E-05 -2.3507E-04 
       1913      3.9417E-05 -2.4760E-04 
       1914      3.4949E-05 -2.5879E-04 
       1915      3.0297E-05 -2.6860E-04 
       1916      2.5488E-05 -2.7698E-04 
       1917      2.0548E-05 -2.8389E-04 
       1918      1.5503E-05 -2.8930E-04 
       1919      1.0379E-05 -2.9318E-04 
       1920      5.2026E-06 -2.9552E-04 
       1921       0.000     -2.9630E-04 
       2001      7.3839E-05 -3.8261E-05 
       2002      7.3949E-05 -5.7308E-05 
       2003      7.3908E-05 -7.6726E-05 
       2004      7.3395E-05 -9.6471E-05 
       2005      7.2231E-05 -1.1624E-04 
       2006      7.0391E-05 -1.3569E-04 
       2007      6.7929E-05 -1.5457E-04 
       2008      6.4926E-05 -1.7266E-04 
       2009      6.1461E-05 -1.8981E-04 
       2010      5.7599E-05 -2.0591E-04 
       2011      5.3394E-05 -2.2089E-04 
       2012      4.8887E-05 -2.3466E-04 
       2013      4.4115E-05 -2.4716E-04 
       2014      3.9109E-05 -2.5833E-04 
       2015      3.3900E-05 -2.6811E-04 
       2016      2.8517E-05 -2.7647E-04 
       2017      2.2988E-05 -2.8337E-04 
       2018      1.7343E-05 -2.8877E-04 
       2019      1.1611E-05 -2.9264E-04 
       2020      5.8200E-06 -2.9497E-04 
       2021       0.000     -2.9575E-04 

 MAXIMUM         7.3949E-05   0.000    
 AT NODE              2002           1

 MINIMUM        -9.6939E-05 -2.9827E-04
 AT NODE                 1        1121
  
  
  
   THE FOLLOWING TABLE IS PRINTED FOR ALL NODES
  
       NODE FOOT-   RF1         RF2      
            NOTE
  
          1       0.000      2.5000E+05 
         21      4.5718E+04   0.000     
        121      8.4858E+04   0.000     
        221      7.5089E+04   0.000     
        321      6.5440E+04   0.000     
        421      5.5897E+04   0.000     
        521      4.6443E+04   0.000     
        621      3.7065E+04   0.000     
        721      2.7747E+04   0.000     
        821      1.8474E+04   0.000     
        921       9230.       0.000     
       1021       1.678       0.000     
       1121      -9227.       0.000     
       1221     -1.8471E+04   0.000     
       1321     -2.7745E+04   0.000     
       1421     -3.7065E+04   0.000     
       1521     -4.6444E+04   0.000     
       1621     -5.5898E+04   0.000     
       1721     -6.5442E+04   0.000     
       1821     -7.5091E+04   0.000     
       1921     -8.4860E+04   0.000     
       2021     -4.5719E+04   0.000     

 MAXIMUM         8.4858E+04  2.5000E+05
 AT NODE               121           1

 MINIMUM        -8.4860E+04   0.000    
 AT NODE              1921           2


          THE ANALYSIS HAS BEEN COMPLETED



                              ANALYSIS COMPLETE



     JOB TIME SUMMARY
       USER TIME (SEC)      =  0.11000    
       SYSTEM TIME (SEC)    =  2.00000E-02
       TOTAL CPU TIME (SEC) =  0.13000    
       WALLCLOCK TIME (SEC) =          0
