1

   Abaqus 6.13-1                                  Date 22-Jan-2017   Time 21:07:31
   For use by  under license from Dassault Systemes or its subsidiary.



                         The Abaqus Software is a product of:

                           Dassault Systemes Simulia Corp.
                                 Rising Sun Mills
                                 166 Valley Street
                           Providence, RI 02909-2499, USA
 


                   The Abaqus Software is available only under license
                   from Dassault Systemes or its subsidiary and may be
                   used or reproduced only in accordance with the terms
                   of such license.
 
                          On machine Geoff 
                          you are authorized to run
                          Abaqus/Standard until 31-Dec-2055

                          Your site id is:  


 
                    For assistance or any other information you may
                    obtain contact information for your local office
                    from the world wide web at:

                      http://www.3ds.com/products/simulia/locations/

 
                * * * * * * * * * * * * * * * * * * * * * * * * * * * * * * 
                *                                                         * 
                *                   *****************                     * 
                *                   *  N O T I C E  *                     * 
                *                   *****************                     * 
                *                                                         * 
                *                                                         * 
                *                    Abaqus 6.13-1                        * 
                *                                                         * 
                *          BUILD ID: 2013_05_16-03.28.56 126354           * 
                *                                                         * 
                *                                                         * 
                *  Please make sure you are using release 6.13 manuals    * 
                *  plus the notes accompanying this release.              * 
                *                                                         * 
                *                                                         * 
                *                                                         * 
                *                                                         * 
                * * * * * * * * * * * * * * * * * * * * * * * * * * * * * * 


 



     PROCESSING PART, INSTANCE, AND ASSEMBLY INFORMATION
   *******************************************************


     END PROCESSING PART, INSTANCE, AND ASSEMBLY INFORMATION
   ***********************************************************




     OPTIONS BEING PROCESSED
   ***************************


  *Heading
  *Node
  *Element, type=C3D20
  *Nset, nset=ASSEMBLY_BOLT1-1__PICKEDSET15
  *Elset, elset=ASSEMBLY_BOLT1-1__PICKEDSET15
  *Node
  *Element, type=C3D20
  *Nset, nset=ASSEMBLY_BOLT2-1__PICKEDSET8
  *Elset, elset=ASSEMBLY_BOLT2-1__PICKEDSET8
  *Node
  *Element, type=C3D20
  *Nset, nset=ASSEMBLY_BOLT3-1__PICKEDSET9
  *Elset, elset=ASSEMBLY_BOLT3-1__PICKEDSET9
  *Node
  *Element, type=C3D20
  *Nset, nset=ASSEMBLY_BOLT4-1__PICKEDSET12
  *Elset, elset=ASSEMBLY_BOLT4-1__PICKEDSET12
  *Node
  *Element, type=C3D8R
  *Nset, nset=ASSEMBLY_BRAKE-1__PICKEDSET4
  *Elset, elset=ASSEMBLY_BRAKE-1__PICKEDSET4
  *Node
  *Element, type=C3D10
  *Nset, nset=ASSEMBLY_HUB-1__PICKEDSET7
  *Elset, elset=ASSEMBLY_HUB-1__PICKEDSET7
  *Node
  *Element, type=C3D8R
  *Element, type=C3D10
  *Nset, nset=ASSEMBLY_NUT1-1__PICKEDSET8
  *Elset, elset=ASSEMBLY_NUT1-1__PICKEDSET8
  *Node
  *Element, type=C3D8R
  *Element, type=C3D10
  *Nset, nset=ASSEMBLY_NUT2-1__PICKEDSET6
  *Elset, elset=ASSEMBLY_NUT2-1__PICKEDSET6
  *Node
  *Element, type=C3D8R
  *Element, type=C3D10
  *Nset, nset=ASSEMBLY_NUT3-1__PICKEDSET6
  *Elset, elset=ASSEMBLY_NUT3-1__PICKEDSET6
  *Node
  *Element, type=C3D8R
  *Element, type=C3D10
  *Nset, nset=ASSEMBLY_NUT4-1__PICKEDSET6
  *Elset, elset=ASSEMBLY_NUT4-1__PICKEDSET6
  *Node
  *Element, type=C3D20
  *Nset, nset=ASSEMBLY_SPACER1-1__PICKEDSET10
  *Elset, elset=ASSEMBLY_SPACER1-1__PICKEDSET10
  *Node
  *Element, type=C3D20
  *Nset, nset=ASSEMBLY_SPACER2-1__PICKEDSET4
  *Elset, elset=ASSEMBLY_SPACER2-1__PICKEDSET4
  *Node
  *Element, type=C3D8R
  *Nset, nset=ASSEMBLY_WASHER1-1__PICKEDSET5
  *Elset, elset=ASSEMBLY_WASHER1-1__PICKEDSET5
  *Node
  *Element, type=C3D8R
  *Nset, nset=ASSEMBLY_WASHER2-1__PICKEDSET3
  *Elset, elset=ASSEMBLY_WASHER2-1__PICKEDSET3
  *Node
  *Element, type=C3D8R
  *Nset, nset=ASSEMBLY_WASHER3-1__PICKEDSET3
  *Elset, elset=ASSEMBLY_WASHER3-1__PICKEDSET3
  *Node
  *Element, type=C3D8R
  *Nset, nset=ASSEMBLY_WASHER4-1__PICKEDSET3
  *Elset, elset=ASSEMBLY_WASHER4-1__PICKEDSET3
  *Node
  *Element, type=C3D20
  *Element, type=C3D10
  *Nset, nset=ASSEMBLY_WHEEL-CENTRE-1__PICKEDSET15
  *Elset, elset=ASSEMBLY_WHEEL-CENTRE-1__PICKEDSET15
  *Node
  *Nset, nset=ASSEMBLY__BOLT-PRELOAD-1_BLRN_
  *Nset, nset=ASSEMBLY__BOLT-PRELOAD-2_BLRN_
  *Nset, nset=ASSEMBLY__BOLT-PRELOAD-3_BLRN_
  *Nset, nset=ASSEMBLY__BOLT-PRELOAD-4_BLRN_
  *Nset, nset=ASSEMBLY__PICKEDSET44
  *Nset, nset=ASSEMBLY__PICKEDSET45
  *Nset, nset=ASSEMBLY__T0_NUT1-1_SN
  *Nset, nset=ASSEMBLY__T0_NUT2-1_SN
  *Nset, nset=ASSEMBLY__T0_NUT3-1_SN
  *Nset, nset=ASSEMBLY__T0_NUT4-1_SN
  *Nset, nset=ASSEMBLY__T0_WHEEL-CENTRE-1_SN
  *Nset, nset=ASSEMBLY__T10_WHEEL-CENTRE-1_SN
  *Nset, nset=ASSEMBLY__T11_WHEEL-CENTRE-1_SN
  *Nset, nset=ASSEMBLY__T12_WHEEL-CENTRE-1_SN
  *Nset, nset=ASSEMBLY__T13_WHEEL-CENTRE-1_SN
  *Nset, nset=ASSEMBLY__T14_WHEEL-CENTRE-1_SN
  *Nset, nset=ASSEMBLY__T15_WHEEL-CENTRE-1_SN
  *Nset, nset=ASSEMBLY__T16_WHEEL-CENTRE-1_SN
  *Nset, nset=ASSEMBLY__T17_WHEEL-CENTRE-1_SN
  *Nset, nset=ASSEMBLY__T18_WHEEL-CENTRE-1_SN
  *Nset, nset=ASSEMBLY__T19_WHEEL-CENTRE-1_SN
  *Nset, nset=ASSEMBLY__T1_WHEEL-CENTRE-1_SN
  *Nset, nset=ASSEMBLY__T20_WHEEL-CENTRE-1_SN
  *Nset, nset=ASSEMBLY__T21_WHEEL-CENTRE-1_SN
  *Nset, nset=ASSEMBLY__T2_WHEEL-CENTRE-1_SN
  *Nset, nset=ASSEMBLY__T3_WHEEL-CENTRE-1_SN
  *Nset, nset=ASSEMBLY__T4_WHEEL-CENTRE-1_SN
  *Nset, nset=ASSEMBLY__T5_WHEEL-CENTRE-1_SN
  *Nset, nset=ASSEMBLY__T6_WHEEL-CENTRE-1_SN
  *Nset, nset=ASSEMBLY__T7_WHEEL-CENTRE-1_SN
  *Nset, nset=ASSEMBLY__T8_WHEEL-CENTRE-1_SN
  *Nset, nset=ASSEMBLY__T9_WHEEL-CENTRE-1_SN
  *Elset, elset=ASSEMBLY__CP-12-NUT3-1_S4
  *Elset, elset=ASSEMBLY__CP-12-NUT3-1_S6
  *Elset, elset=ASSEMBLY__CP-16-NUT4-1_S4
  *Elset, elset=ASSEMBLY__CP-16-NUT4-1_S6
  *Elset, elset=ASSEMBLY__CP-4-NUT1-1_S4
  *Elset, elset=ASSEMBLY__CP-4-NUT1-1_S6
  *Elset, elset=ASSEMBLY__CP-8-NUT2-1_S4
  *Elset, elset=ASSEMBLY__CP-8-NUT2-1_S6
  *Elset, elset=ASSEMBLY__PICKEDSET44
  *Elset, elset=ASSEMBLY__PICKEDSET45
  *Elset, elset=ASSEMBLY___INT-1_GCS0_100_S4
  *Elset, elset=ASSEMBLY___INT-1_GCS0_100_S6
  *Elset, elset=ASSEMBLY___INT-1_GCS0_101_S1
  *Elset, elset=ASSEMBLY___INT-1_GCS0_101_S2
  *Elset, elset=ASSEMBLY___INT-1_GCS0_101_S3
  *Elset, elset=ASSEMBLY___INT-1_GCS0_101_S4
  *Elset, elset=ASSEMBLY___INT-1_GCS0_102_S1
  *Elset, elset=ASSEMBLY___INT-1_GCS0_102_S2
  *Elset, elset=ASSEMBLY___INT-1_GCS0_102_S3
  *Elset, elset=ASSEMBLY___INT-1_GCS0_102_S4
  *Elset, elset=ASSEMBLY___INT-1_GCS0_10_S3
  *Elset, elset=ASSEMBLY___INT-1_GCS0_10_S5
  *Elset, elset=ASSEMBLY___INT-1_GCS0_10_S6
  *Elset, elset=ASSEMBLY___INT-1_GCS0_112_S4
  *Elset, elset=ASSEMBLY___INT-1_GCS0_112_S6
  *Elset, elset=ASSEMBLY___INT-1_GCS0_113_S1
  *Elset, elset=ASSEMBLY___INT-1_GCS0_113_S2
  *Elset, elset=ASSEMBLY___INT-1_GCS0_113_S3
  *Elset, elset=ASSEMBLY___INT-1_GCS0_113_S4
  *Elset, elset=ASSEMBLY___INT-1_GCS0_114_S1
  *Elset, elset=ASSEMBLY___INT-1_GCS0_114_S2
  *Elset, elset=ASSEMBLY___INT-1_GCS0_114_S3
  *Elset, elset=ASSEMBLY___INT-1_GCS0_114_S4
  *Elset, elset=ASSEMBLY___INT-1_GCS0_124_S4
  *Elset, elset=ASSEMBLY___INT-1_GCS0_124_S6
  *Elset, elset=ASSEMBLY___INT-1_GCS0_125_S1
  *Elset, elset=ASSEMBLY___INT-1_GCS0_125_S2
  *Elset, elset=ASSEMBLY___INT-1_GCS0_125_S3
  *Elset, elset=ASSEMBLY___INT-1_GCS0_125_S4
  *Elset, elset=ASSEMBLY___INT-1_GCS0_126_S1
  *Elset, elset=ASSEMBLY___INT-1_GCS0_126_S2
  *Elset, elset=ASSEMBLY___INT-1_GCS0_126_S3
  *Elset, elset=ASSEMBLY___INT-1_GCS0_126_S4
  *Elset, elset=ASSEMBLY___INT-1_GCS0_136_S4
  *Elset, elset=ASSEMBLY___INT-1_GCS0_136_S6
  *Elset, elset=ASSEMBLY___INT-1_GCS0_137_S1
  *Elset, elset=ASSEMBLY___INT-1_GCS0_137_S2
  *Elset, elset=ASSEMBLY___INT-1_GCS0_137_S3
  *Elset, elset=ASSEMBLY___INT-1_GCS0_137_S4
  *Elset, elset=ASSEMBLY___INT-1_GCS0_138_S1
  *Elset, elset=ASSEMBLY___INT-1_GCS0_138_S2
  *Elset, elset=ASSEMBLY___INT-1_GCS0_138_S3
  *Elset, elset=ASSEMBLY___INT-1_GCS0_138_S4
  *Elset, elset=ASSEMBLY___INT-1_GCS0_13_S3
  *Elset, elset=ASSEMBLY___INT-1_GCS0_13_S4
  *Elset, elset=ASSEMBLY___INT-1_GCS0_13_S6
  *Elset, elset=ASSEMBLY___INT-1_GCS0_140_S3
  *Elset, elset=ASSEMBLY___INT-1_GCS0_140_S4
  *Elset, elset=ASSEMBLY___INT-1_GCS0_140_S5
  *Elset, elset=ASSEMBLY___INT-1_GCS0_140_S6
  *Elset, elset=ASSEMBLY___INT-1_GCS0_141_S3
  *Elset, elset=ASSEMBLY___INT-1_GCS0_141_S4
  *Elset, elset=ASSEMBLY___INT-1_GCS0_141_S5
  *Elset, elset=ASSEMBLY___INT-1_GCS0_141_S6
  *Elset, elset=ASSEMBLY___INT-1_GCS0_143_S3
  *Elset, elset=ASSEMBLY___INT-1_GCS0_143_S4
  *Elset, elset=ASSEMBLY___INT-1_GCS0_143_S5
  *Elset, elset=ASSEMBLY___INT-1_GCS0_143_S6
  *Elset, elset=ASSEMBLY___INT-1_GCS0_145_S3
  *Elset, elset=ASSEMBLY___INT-1_GCS0_145_S4
  *Elset, elset=ASSEMBLY___INT-1_GCS0_145_S5
  *Elset, elset=ASSEMBLY___INT-1_GCS0_145_S6
  *Elset, elset=ASSEMBLY___INT-1_GCS0_147_S3
  *Elset, elset=ASSEMBLY___INT-1_GCS0_147_S4
  *Elset, elset=ASSEMBLY___INT-1_GCS0_147_S5
  *Elset, elset=ASSEMBLY___INT-1_GCS0_147_S6
  *Elset, elset=ASSEMBLY___INT-1_GCS0_148_S3
  *Elset, elset=ASSEMBLY___INT-1_GCS0_148_S4
  *Elset, elset=ASSEMBLY___INT-1_GCS0_148_S5
  *Elset, elset=ASSEMBLY___INT-1_GCS0_148_S6
  *Elset, elset=ASSEMBLY___INT-1_GCS0_149_S3
  *Elset, elset=ASSEMBLY___INT-1_GCS0_149_S4
  *Elset, elset=ASSEMBLY___INT-1_GCS0_149_S5
  *Elset, elset=ASSEMBLY___INT-1_GCS0_149_S6
  *Elset, elset=ASSEMBLY___INT-1_GCS0_150_S3
  *Elset, elset=ASSEMBLY___INT-1_GCS0_150_S4
  *Elset, elset=ASSEMBLY___INT-1_GCS0_150_S5
  *Elset, elset=ASSEMBLY___INT-1_GCS0_150_S6
  *Elset, elset=ASSEMBLY___INT-1_GCS0_152_S3
  *Elset, elset=ASSEMBLY___INT-1_GCS0_152_S4
  *Elset, elset=ASSEMBLY___INT-1_GCS0_152_S5
  *Elset, elset=ASSEMBLY___INT-1_GCS0_152_S6
  *Elset, elset=ASSEMBLY___INT-1_GCS0_154_S3
  *Elset, elset=ASSEMBLY___INT-1_GCS0_154_S4
  *Elset, elset=ASSEMBLY___INT-1_GCS0_154_S5
  *Elset, elset=ASSEMBLY___INT-1_GCS0_154_S6
  *Elset, elset=ASSEMBLY___INT-1_GCS0_155_S3
  *Elset, elset=ASSEMBLY___INT-1_GCS0_155_S4
  *Elset, elset=ASSEMBLY___INT-1_GCS0_155_S5
  *Elset, elset=ASSEMBLY___INT-1_GCS0_155_S6
  *Elset, elset=ASSEMBLY___INT-1_GCS0_156_S3
  *Elset, elset=ASSEMBLY___INT-1_GCS0_156_S4
  *Elset, elset=ASSEMBLY___INT-1_GCS0_156_S5
  *Elset, elset=ASSEMBLY___INT-1_GCS0_156_S6
  *Elset, elset=ASSEMBLY___INT-1_GCS0_157_S3
  *Elset, elset=ASSEMBLY___INT-1_GCS0_157_S4
  *Elset, elset=ASSEMBLY___INT-1_GCS0_157_S5
  *Elset, elset=ASSEMBLY___INT-1_GCS0_157_S6
  *Elset, elset=ASSEMBLY___INT-1_GCS0_158_S3
  *Elset, elset=ASSEMBLY___INT-1_GCS0_158_S4
  *Elset, elset=ASSEMBLY___INT-1_GCS0_158_S5
  *Elset, elset=ASSEMBLY___INT-1_GCS0_158_S6
  *Elset, elset=ASSEMBLY___INT-1_GCS0_15_S3
  *Elset, elset=ASSEMBLY___INT-1_GCS0_15_S5
  *Elset, elset=ASSEMBLY___INT-1_GCS0_15_S6
  *Elset, elset=ASSEMBLY___INT-1_GCS0_161_S4
  *Elset, elset=ASSEMBLY___INT-1_GCS0_161_S6
  *Elset, elset=ASSEMBLY___INT-1_GCS0_162_S4
  *Elset, elset=ASSEMBLY___INT-1_GCS0_162_S6
  *Elset, elset=ASSEMBLY___INT-1_GCS0_165_S3
  *Elset, elset=ASSEMBLY___INT-1_GCS0_165_S4
  *Elset, elset=ASSEMBLY___INT-1_GCS0_165_S5
  *Elset, elset=ASSEMBLY___INT-1_GCS0_165_S6
  *Elset, elset=ASSEMBLY___INT-1_GCS0_166_S3
  *Elset, elset=ASSEMBLY___INT-1_GCS0_166_S4
  *Elset, elset=ASSEMBLY___INT-1_GCS0_166_S5
  *Elset, elset=ASSEMBLY___INT-1_GCS0_169_S4
  *Elset, elset=ASSEMBLY___INT-1_GCS0_169_S5
  *Elset, elset=ASSEMBLY___INT-1_GCS0_169_S6
  *Elset, elset=ASSEMBLY___INT-1_GCS0_170_S3
  *Elset, elset=ASSEMBLY___INT-1_GCS0_170_S4
  *Elset, elset=ASSEMBLY___INT-1_GCS0_170_S5
  *Elset, elset=ASSEMBLY___INT-1_GCS0_173_S3
  *Elset, elset=ASSEMBLY___INT-1_GCS0_173_S4
  *Elset, elset=ASSEMBLY___INT-1_GCS0_173_S5
  *Elset, elset=ASSEMBLY___INT-1_GCS0_173_S6
  *Elset, elset=ASSEMBLY___INT-1_GCS0_174_S3
  *Elset, elset=ASSEMBLY___INT-1_GCS0_174_S4
  *Elset, elset=ASSEMBLY___INT-1_GCS0_174_S5
  *Elset, elset=ASSEMBLY___INT-1_GCS0_18_S3
  *Elset, elset=ASSEMBLY___INT-1_GCS0_18_S4
  *Elset, elset=ASSEMBLY___INT-1_GCS0_18_S5
  *Elset, elset=ASSEMBLY___INT-1_GCS0_196_S1
  *Elset, elset=ASSEMBLY___INT-1_GCS0_196_S2
  *Elset, elset=ASSEMBLY___INT-1_GCS0_196_S3
  *Elset, elset=ASSEMBLY___INT-1_GCS0_196_S4
  *Elset, elset=ASSEMBLY___INT-1_GCS0_197_S4
  *Elset, elset=ASSEMBLY___INT-1_GCS0_197_S5
  *Elset, elset=ASSEMBLY___INT-1_GCS0_200_S1
  *Elset, elset=ASSEMBLY___INT-1_GCS0_200_S2
  *Elset, elset=ASSEMBLY___INT-1_GCS0_200_S3
  *Elset, elset=ASSEMBLY___INT-1_GCS0_200_S4
  *Elset, elset=ASSEMBLY___INT-1_GCS0_201_S4
  *Elset, elset=ASSEMBLY___INT-1_GCS0_201_S5
  *Elset, elset=ASSEMBLY___INT-1_GCS0_204_S1
  *Elset, elset=ASSEMBLY___INT-1_GCS0_204_S2
  *Elset, elset=ASSEMBLY___INT-1_GCS0_204_S3
  *Elset, elset=ASSEMBLY___INT-1_GCS0_204_S4
  *Elset, elset=ASSEMBLY___INT-1_GCS0_205_S6
  *Elset, elset=ASSEMBLY___INT-1_GCS0_208_S4
  *Elset, elset=ASSEMBLY___INT-1_GCS0_208_S5
  *Elset, elset=ASSEMBLY___INT-1_GCS0_21_S4
  *Elset, elset=ASSEMBLY___INT-1_GCS0_21_S5
  *Elset, elset=ASSEMBLY___INT-1_GCS0_21_S6
  *Elset, elset=ASSEMBLY___INT-1_GCS0_232_S1
  *Elset, elset=ASSEMBLY___INT-1_GCS0_232_S2
  *Elset, elset=ASSEMBLY___INT-1_GCS0_232_S3
  *Elset, elset=ASSEMBLY___INT-1_GCS0_232_S4
  *Elset, elset=ASSEMBLY___INT-1_GCS0_233_S3
  *Elset, elset=ASSEMBLY___INT-1_GCS0_233_S4
  *Elset, elset=ASSEMBLY___INT-1_GCS0_233_S5
  *Elset, elset=ASSEMBLY___INT-1_GCS0_233_S6
  *Elset, elset=ASSEMBLY___INT-1_GCS0_236_S1
  *Elset, elset=ASSEMBLY___INT-1_GCS0_236_S2
  *Elset, elset=ASSEMBLY___INT-1_GCS0_236_S3
  *Elset, elset=ASSEMBLY___INT-1_GCS0_236_S4
  *Elset, elset=ASSEMBLY___INT-1_GCS0_237_S3
  *Elset, elset=ASSEMBLY___INT-1_GCS0_237_S4
  *Elset, elset=ASSEMBLY___INT-1_GCS0_237_S5
  *Elset, elset=ASSEMBLY___INT-1_GCS0_237_S6
  *Elset, elset=ASSEMBLY___INT-1_GCS0_238_S4
  *Elset, elset=ASSEMBLY___INT-1_GCS0_238_S6
  *Elset, elset=ASSEMBLY___INT-1_GCS0_239_S4
  *Elset, elset=ASSEMBLY___INT-1_GCS0_239_S6
  *Elset, elset=ASSEMBLY___INT-1_GCS0_23_S3
  *Elset, elset=ASSEMBLY___INT-1_GCS0_23_S4
  *Elset, elset=ASSEMBLY___INT-1_GCS0_23_S5
  *Elset, elset=ASSEMBLY___INT-1_GCS0_23_S6
  *Elset, elset=ASSEMBLY___INT-1_GCS0_240_S3
  *Elset, elset=ASSEMBLY___INT-1_GCS0_240_S4
  *Elset, elset=ASSEMBLY___INT-1_GCS0_240_S5
  *Elset, elset=ASSEMBLY___INT-1_GCS0_240_S6
  *Elset, elset=ASSEMBLY___INT-1_GCS0_241_S3
  *Elset, elset=ASSEMBLY___INT-1_GCS0_241_S5
  *Elset, elset=ASSEMBLY___INT-1_GCS0_242_S3
  *Elset, elset=ASSEMBLY___INT-1_GCS0_242_S4
  *Elset, elset=ASSEMBLY___INT-1_GCS0_242_S5
  *Elset, elset=ASSEMBLY___INT-1_GCS0_242_S6
  *Elset, elset=ASSEMBLY___INT-1_GCS0_243_S3
  *Elset, elset=ASSEMBLY___INT-1_GCS0_243_S4
  *Elset, elset=ASSEMBLY___INT-1_GCS0_243_S5
  *Elset, elset=ASSEMBLY___INT-1_GCS0_243_S6
  *Elset, elset=ASSEMBLY___INT-1_GCS0_244_S3
  *Elset, elset=ASSEMBLY___INT-1_GCS0_244_S4
  *Elset, elset=ASSEMBLY___INT-1_GCS0_244_S5
  *Elset, elset=ASSEMBLY___INT-1_GCS0_244_S6
  *Elset, elset=ASSEMBLY___INT-1_GCS0_245_S3
  *Elset, elset=ASSEMBLY___INT-1_GCS0_245_S4
  *Elset, elset=ASSEMBLY___INT-1_GCS0_245_S5
  *Elset, elset=ASSEMBLY___INT-1_GCS0_245_S6
  *Elset, elset=ASSEMBLY___INT-1_GCS0_246_S3
  *Elset, elset=ASSEMBLY___INT-1_GCS0_246_S5
  *Elset, elset=ASSEMBLY___INT-1_GCS0_247_S3
  *Elset, elset=ASSEMBLY___INT-1_GCS0_247_S4
  *Elset, elset=ASSEMBLY___INT-1_GCS0_247_S5
  *Elset, elset=ASSEMBLY___INT-1_GCS0_247_S6
  *Elset, elset=ASSEMBLY___INT-1_GCS0_248_S3
  *Elset, elset=ASSEMBLY___INT-1_GCS0_248_S4
  *Elset, elset=ASSEMBLY___INT-1_GCS0_248_S5
  *Elset, elset=ASSEMBLY___INT-1_GCS0_248_S6
  *Elset, elset=ASSEMBLY___INT-1_GCS0_249_S3
  *Elset, elset=ASSEMBLY___INT-1_GCS0_249_S4
  *Elset, elset=ASSEMBLY___INT-1_GCS0_249_S5
  *Elset, elset=ASSEMBLY___INT-1_GCS0_249_S6
  *Elset, elset=ASSEMBLY___INT-1_GCS0_250_S3
  *Elset, elset=ASSEMBLY___INT-1_GCS0_250_S4
  *Elset, elset=ASSEMBLY___INT-1_GCS0_250_S5
  *Elset, elset=ASSEMBLY___INT-1_GCS0_250_S6
  *Elset, elset=ASSEMBLY___INT-1_GCS0_251_S4
  *Elset, elset=ASSEMBLY___INT-1_GCS0_251_S5
  *Elset, elset=ASSEMBLY___INT-1_GCS0_251_S6
  *Elset, elset=ASSEMBLY___INT-1_GCS0_252_S3
  *Elset, elset=ASSEMBLY___INT-1_GCS0_252_S4
  *Elset, elset=ASSEMBLY___INT-1_GCS0_252_S5
  *Elset, elset=ASSEMBLY___INT-1_GCS0_252_S6
  *Elset, elset=ASSEMBLY___INT-1_GCS0_253_S3
  *Elset, elset=ASSEMBLY___INT-1_GCS0_253_S4
  *Elset, elset=ASSEMBLY___INT-1_GCS0_253_S5
  *Elset, elset=ASSEMBLY___INT-1_GCS0_253_S6
  *Elset, elset=ASSEMBLY___INT-1_GCS0_254_S3
  *Elset, elset=ASSEMBLY___INT-1_GCS0_254_S4
  *Elset, elset=ASSEMBLY___INT-1_GCS0_254_S5
  *Elset, elset=ASSEMBLY___INT-1_GCS0_254_S6
  *Elset, elset=ASSEMBLY___INT-1_GCS0_255_S3
  *Elset, elset=ASSEMBLY___INT-1_GCS0_255_S4
  *Elset, elset=ASSEMBLY___INT-1_GCS0_255_S5
  *Elset, elset=ASSEMBLY___INT-1_GCS0_255_S6
  *Elset, elset=ASSEMBLY___INT-1_GCS0_256_S3
  *Elset, elset=ASSEMBLY___INT-1_GCS0_256_S4
  *Elset, elset=ASSEMBLY___INT-1_GCS0_256_S5
  *Elset, elset=ASSEMBLY___INT-1_GCS0_256_S6
  *Elset, elset=ASSEMBLY___INT-1_GCS0_257_S3
  *Elset, elset=ASSEMBLY___INT-1_GCS0_257_S4
  *Elset, elset=ASSEMBLY___INT-1_GCS0_257_S5
  *Elset, elset=ASSEMBLY___INT-1_GCS0_257_S6
  *Elset, elset=ASSEMBLY___INT-1_GCS0_258_S3
  *Elset, elset=ASSEMBLY___INT-1_GCS0_258_S4
  *Elset, elset=ASSEMBLY___INT-1_GCS0_258_S5
  *Elset, elset=ASSEMBLY___INT-1_GCS0_258_S6
  *Elset, elset=ASSEMBLY___INT-1_GCS0_259_S1
  *Elset, elset=ASSEMBLY___INT-1_GCS0_259_S2
  *Elset, elset=ASSEMBLY___INT-1_GCS0_259_S3
  *Elset, elset=ASSEMBLY___INT-1_GCS0_259_S4
  *Elset, elset=ASSEMBLY___INT-1_GCS0_261_S1
  *Elset, elset=ASSEMBLY___INT-1_GCS0_261_S2
  *Elset, elset=ASSEMBLY___INT-1_GCS0_261_S3
  *Elset, elset=ASSEMBLY___INT-1_GCS0_261_S4
  *Elset, elset=ASSEMBLY___INT-1_GCS0_262_S3
  *Elset, elset=ASSEMBLY___INT-1_GCS0_262_S5
  *Elset, elset=ASSEMBLY___INT-1_GCS0_263_S1
  *Elset, elset=ASSEMBLY___INT-1_GCS0_263_S2
  *Elset, elset=ASSEMBLY___INT-1_GCS0_263_S3
  *Elset, elset=ASSEMBLY___INT-1_GCS0_263_S4
  *Elset, elset=ASSEMBLY___INT-1_GCS0_265_S1
  *Elset, elset=ASSEMBLY___INT-1_GCS0_265_S2
  *Elset, elset=ASSEMBLY___INT-1_GCS0_265_S3
  *Elset, elset=ASSEMBLY___INT-1_GCS0_265_S4
  *Elset, elset=ASSEMBLY___INT-1_GCS0_266_S3
  *Elset, elset=ASSEMBLY___INT-1_GCS0_267_S1
  *Elset, elset=ASSEMBLY___INT-1_GCS0_267_S2
  *Elset, elset=ASSEMBLY___INT-1_GCS0_267_S3
  *Elset, elset=ASSEMBLY___INT-1_GCS0_267_S4
  *Elset, elset=ASSEMBLY___INT-1_GCS0_269_S1
  *Elset, elset=ASSEMBLY___INT-1_GCS0_269_S2
  *Elset, elset=ASSEMBLY___INT-1_GCS0_269_S3
  *Elset, elset=ASSEMBLY___INT-1_GCS0_269_S4
  *Elset, elset=ASSEMBLY___INT-1_GCS0_26_S3
  *Elset, elset=ASSEMBLY___INT-1_GCS0_26_S5
  *Elset, elset=ASSEMBLY___INT-1_GCS0_26_S6
  *Elset, elset=ASSEMBLY___INT-1_GCS0_270_S4
  *Elset, elset=ASSEMBLY___INT-1_GCS0_270_S5
  *Elset, elset=ASSEMBLY___INT-1_GCS0_270_S6
  *Elset, elset=ASSEMBLY___INT-1_GCS0_271_S1
  *Elset, elset=ASSEMBLY___INT-1_GCS0_271_S2
  *Elset, elset=ASSEMBLY___INT-1_GCS0_271_S3
  *Elset, elset=ASSEMBLY___INT-1_GCS0_271_S4
  *Elset, elset=ASSEMBLY___INT-1_GCS0_273_S1
  *Elset, elset=ASSEMBLY___INT-1_GCS0_273_S2
  *Elset, elset=ASSEMBLY___INT-1_GCS0_273_S3
  *Elset, elset=ASSEMBLY___INT-1_GCS0_273_S4
  *Elset, elset=ASSEMBLY___INT-1_GCS0_274_S3
  *Elset, elset=ASSEMBLY___INT-1_GCS0_275_S1
  *Elset, elset=ASSEMBLY___INT-1_GCS0_275_S2
  *Elset, elset=ASSEMBLY___INT-1_GCS0_275_S3
  *Elset, elset=ASSEMBLY___INT-1_GCS0_275_S4
  *Elset, elset=ASSEMBLY___INT-1_GCS0_277_S1
  *Elset, elset=ASSEMBLY___INT-1_GCS0_277_S2
  *Elset, elset=ASSEMBLY___INT-1_GCS0_277_S3
  *Elset, elset=ASSEMBLY___INT-1_GCS0_277_S4
  *Elset, elset=ASSEMBLY___INT-1_GCS0_278_S3
  *Elset, elset=ASSEMBLY___INT-1_GCS0_278_S5
  *Elset, elset=ASSEMBLY___INT-1_GCS0_279_S1
  *Elset, elset=ASSEMBLY___INT-1_GCS0_279_S2
  *Elset, elset=ASSEMBLY___INT-1_GCS0_279_S3
  *Elset, elset=ASSEMBLY___INT-1_GCS0_279_S4
  *Elset, elset=ASSEMBLY___INT-1_GCS0_281_S1
  *Elset, elset=ASSEMBLY___INT-1_GCS0_281_S2
  *Elset, elset=ASSEMBLY___INT-1_GCS0_281_S3
  *Elset, elset=ASSEMBLY___INT-1_GCS0_281_S4
  *Elset, elset=ASSEMBLY___INT-1_GCS0_282_S2
  *Elset, elset=ASSEMBLY___INT-1_GCS0_282_S3
  *Elset, elset=ASSEMBLY___INT-1_GCS0_283_S1
  *Elset, elset=ASSEMBLY___INT-1_GCS0_283_S2
  *Elset, elset=ASSEMBLY___INT-1_GCS0_283_S3
  *Elset, elset=ASSEMBLY___INT-1_GCS0_283_S4
  *Elset, elset=ASSEMBLY___INT-1_GCS0_285_S1
  *Elset, elset=ASSEMBLY___INT-1_GCS0_285_S2
  *Elset, elset=ASSEMBLY___INT-1_GCS0_285_S3
  *Elset, elset=ASSEMBLY___INT-1_GCS0_285_S4
  *Elset, elset=ASSEMBLY___INT-1_GCS0_286_S3
  *Elset, elset=ASSEMBLY___INT-1_GCS0_286_S4
  *Elset, elset=ASSEMBLY___INT-1_GCS0_286_S5
  *Elset, elset=ASSEMBLY___INT-1_GCS0_286_S6
  *Elset, elset=ASSEMBLY___INT-1_GCS0_287_S1
  *Elset, elset=ASSEMBLY___INT-1_GCS0_287_S2
  *Elset, elset=ASSEMBLY___INT-1_GCS0_287_S3
  *Elset, elset=ASSEMBLY___INT-1_GCS0_287_S4
  *Elset, elset=ASSEMBLY___INT-1_GCS0_289_S1
  *Elset, elset=ASSEMBLY___INT-1_GCS0_289_S2
  *Elset, elset=ASSEMBLY___INT-1_GCS0_289_S3
  *Elset, elset=ASSEMBLY___INT-1_GCS0_289_S4
  *Elset, elset=ASSEMBLY___INT-1_GCS0_290_S3
  *Elset, elset=ASSEMBLY___INT-1_GCS0_291_S1
  *Elset, elset=ASSEMBLY___INT-1_GCS0_291_S2
  *Elset, elset=ASSEMBLY___INT-1_GCS0_291_S3
  *Elset, elset=ASSEMBLY___INT-1_GCS0_291_S4
  *Elset, elset=ASSEMBLY___INT-1_GCS0_293_S1
  *Elset, elset=ASSEMBLY___INT-1_GCS0_293_S3
  *Elset, elset=ASSEMBLY___INT-1_GCS0_293_S4
  *Elset, elset=ASSEMBLY___INT-1_GCS0_294_S3
  *Elset, elset=ASSEMBLY___INT-1_GCS0_294_S4
  *Elset, elset=ASSEMBLY___INT-1_GCS0_294_S6
  *Elset, elset=ASSEMBLY___INT-1_GCS0_295_S1
  *Elset, elset=ASSEMBLY___INT-1_GCS0_295_S2
  *Elset, elset=ASSEMBLY___INT-1_GCS0_295_S3
  *Elset, elset=ASSEMBLY___INT-1_GCS0_295_S4
  *Elset, elset=ASSEMBLY___INT-1_GCS0_297_S1
  *Elset, elset=ASSEMBLY___INT-1_GCS0_297_S2
  *Elset, elset=ASSEMBLY___INT-1_GCS0_297_S3
  *Elset, elset=ASSEMBLY___INT-1_GCS0_297_S4
  *Elset, elset=ASSEMBLY___INT-1_GCS0_298_S1
  *Elset, elset=ASSEMBLY___INT-1_GCS0_298_S3
  *Elset, elset=ASSEMBLY___INT-1_GCS0_299_S1
  *Elset, elset=ASSEMBLY___INT-1_GCS0_299_S2
  *Elset, elset=ASSEMBLY___INT-1_GCS0_299_S3
  *Elset, elset=ASSEMBLY___INT-1_GCS0_299_S4
  *Elset, elset=ASSEMBLY___INT-1_GCS0_29_S3
  *Elset, elset=ASSEMBLY___INT-1_GCS0_29_S4
  *Elset, elset=ASSEMBLY___INT-1_GCS0_29_S6
  *Elset, elset=ASSEMBLY___INT-1_GCS0_2_S3
  *Elset, elset=ASSEMBLY___INT-1_GCS0_2_S4
  *Elset, elset=ASSEMBLY___INT-1_GCS0_2_S5
  *Elset, elset=ASSEMBLY___INT-1_GCS0_301_S1
  *Elset, elset=ASSEMBLY___INT-1_GCS0_301_S2
  *Elset, elset=ASSEMBLY___INT-1_GCS0_301_S3
  *Elset, elset=ASSEMBLY___INT-1_GCS0_301_S4
  *Elset, elset=ASSEMBLY___INT-1_GCS0_302_S3
  *Elset, elset=ASSEMBLY___INT-1_GCS0_302_S5
  *Elset, elset=ASSEMBLY___INT-1_GCS0_303_S1
  *Elset, elset=ASSEMBLY___INT-1_GCS0_303_S2
  *Elset, elset=ASSEMBLY___INT-1_GCS0_303_S3
  *Elset, elset=ASSEMBLY___INT-1_GCS0_303_S4
  *Elset, elset=ASSEMBLY___INT-1_GCS0_305_S1
  *Elset, elset=ASSEMBLY___INT-1_GCS0_305_S2
  *Elset, elset=ASSEMBLY___INT-1_GCS0_305_S3
  *Elset, elset=ASSEMBLY___INT-1_GCS0_305_S4
  *Elset, elset=ASSEMBLY___INT-1_GCS0_306_S2
  *Elset, elset=ASSEMBLY___INT-1_GCS0_306_S3
  *Elset, elset=ASSEMBLY___INT-1_GCS0_306_S4
  *Elset, elset=ASSEMBLY___INT-1_GCS0_307_S1
  *Elset, elset=ASSEMBLY___INT-1_GCS0_307_S2
  *Elset, elset=ASSEMBLY___INT-1_GCS0_307_S3
  *Elset, elset=ASSEMBLY___INT-1_GCS0_307_S4
  *Elset, elset=ASSEMBLY___INT-1_GCS0_309_S1
  *Elset, elset=ASSEMBLY___INT-1_GCS0_309_S2
  *Elset, elset=ASSEMBLY___INT-1_GCS0_309_S3
  *Elset, elset=ASSEMBLY___INT-1_GCS0_309_S4
  *Elset, elset=ASSEMBLY___INT-1_GCS0_310_S3
  *Elset, elset=ASSEMBLY___INT-1_GCS0_310_S5
  *Elset, elset=ASSEMBLY___INT-1_GCS0_311_S1
  *Elset, elset=ASSEMBLY___INT-1_GCS0_311_S2
  *Elset, elset=ASSEMBLY___INT-1_GCS0_311_S3
  *Elset, elset=ASSEMBLY___INT-1_GCS0_311_S4
  *Elset, elset=ASSEMBLY___INT-1_GCS0_313_S1
  *Elset, elset=ASSEMBLY___INT-1_GCS0_313_S2
  *Elset, elset=ASSEMBLY___INT-1_GCS0_313_S3
  *Elset, elset=ASSEMBLY___INT-1_GCS0_313_S4
  *Elset, elset=ASSEMBLY___INT-1_GCS0_314_S2
  *Elset, elset=ASSEMBLY___INT-1_GCS0_314_S3
  *Elset, elset=ASSEMBLY___INT-1_GCS0_315_S1
  *Elset, elset=ASSEMBLY___INT-1_GCS0_315_S2
  *Elset, elset=ASSEMBLY___INT-1_GCS0_315_S3
  *Elset, elset=ASSEMBLY___INT-1_GCS0_315_S4
  *Elset, elset=ASSEMBLY___INT-1_GCS0_317_S1
  *Elset, elset=ASSEMBLY___INT-1_GCS0_317_S2
  *Elset, elset=ASSEMBLY___INT-1_GCS0_317_S3
  *Elset, elset=ASSEMBLY___INT-1_GCS0_317_S4
  *Elset, elset=ASSEMBLY___INT-1_GCS0_318_S3
  *Elset, elset=ASSEMBLY___INT-1_GCS0_318_S5
  *Elset, elset=ASSEMBLY___INT-1_GCS0_319_S1
  *Elset, elset=ASSEMBLY___INT-1_GCS0_319_S2
  *Elset, elset=ASSEMBLY___INT-1_GCS0_319_S3
  *Elset, elset=ASSEMBLY___INT-1_GCS0_319_S4
  *Elset, elset=ASSEMBLY___INT-1_GCS0_31_S3
  *Elset, elset=ASSEMBLY___INT-1_GCS0_31_S4
  *Elset, elset=ASSEMBLY___INT-1_GCS0_31_S5
  *Elset, elset=ASSEMBLY___INT-1_GCS0_321_S1
  *Elset, elset=ASSEMBLY___INT-1_GCS0_321_S2
  *Elset, elset=ASSEMBLY___INT-1_GCS0_321_S3
  *Elset, elset=ASSEMBLY___INT-1_GCS0_321_S4
  *Elset, elset=ASSEMBLY___INT-1_GCS0_322_S2
  *Elset, elset=ASSEMBLY___INT-1_GCS0_322_S3
  *Elset, elset=ASSEMBLY___INT-1_GCS0_323_S1
  *Elset, elset=ASSEMBLY___INT-1_GCS0_323_S3
  *Elset, elset=ASSEMBLY___INT-1_GCS0_323_S4
  *Elset, elset=ASSEMBLY___INT-1_GCS0_325_S1
  *Elset, elset=ASSEMBLY___INT-1_GCS0_325_S2
  *Elset, elset=ASSEMBLY___INT-1_GCS0_325_S3
  *Elset, elset=ASSEMBLY___INT-1_GCS0_325_S4
  *Elset, elset=ASSEMBLY___INT-1_GCS0_326_S3
  *Elset, elset=ASSEMBLY___INT-1_GCS0_326_S5
  *Elset, elset=ASSEMBLY___INT-1_GCS0_326_S6
  *Elset, elset=ASSEMBLY___INT-1_GCS0_327_S1
  *Elset, elset=ASSEMBLY___INT-1_GCS0_327_S2
  *Elset, elset=ASSEMBLY___INT-1_GCS0_327_S3
  *Elset, elset=ASSEMBLY___INT-1_GCS0_327_S4
  *Elset, elset=ASSEMBLY___INT-1_GCS0_329_S1
  *Elset, elset=ASSEMBLY___INT-1_GCS0_329_S2
  *Elset, elset=ASSEMBLY___INT-1_GCS0_329_S3
  *Elset, elset=ASSEMBLY___INT-1_GCS0_329_S4
  *Elset, elset=ASSEMBLY___INT-1_GCS0_330_S3
  *Elset, elset=ASSEMBLY___INT-1_GCS0_330_S4
  *Elset, elset=ASSEMBLY___INT-1_GCS0_331_S1
  *Elset, elset=ASSEMBLY___INT-1_GCS0_331_S2
  *Elset, elset=ASSEMBLY___INT-1_GCS0_331_S3
  *Elset, elset=ASSEMBLY___INT-1_GCS0_331_S4
  *Elset, elset=ASSEMBLY___INT-1_GCS0_333_S1
  *Elset, elset=ASSEMBLY___INT-1_GCS0_333_S2
  *Elset, elset=ASSEMBLY___INT-1_GCS0_333_S3
  *Elset, elset=ASSEMBLY___INT-1_GCS0_333_S4
  *Elset, elset=ASSEMBLY___INT-1_GCS0_334_S3
  *Elset, elset=ASSEMBLY___INT-1_GCS0_334_S5
  *Elset, elset=ASSEMBLY___INT-1_GCS0_334_S6
  *Elset, elset=ASSEMBLY___INT-1_GCS0_335_S1
  *Elset, elset=ASSEMBLY___INT-1_GCS0_335_S2
  *Elset, elset=ASSEMBLY___INT-1_GCS0_335_S3
  *Elset, elset=ASSEMBLY___INT-1_GCS0_335_S4
  *Elset, elset=ASSEMBLY___INT-1_GCS0_337_S1
  *Elset, elset=ASSEMBLY___INT-1_GCS0_337_S2
  *Elset, elset=ASSEMBLY___INT-1_GCS0_337_S3
  *Elset, elset=ASSEMBLY___INT-1_GCS0_337_S4
  *Elset, elset=ASSEMBLY___INT-1_GCS0_338_S2
  *Elset, elset=ASSEMBLY___INT-1_GCS0_338_S3
  *Elset, elset=ASSEMBLY___INT-1_GCS0_339_S1
  *Elset, elset=ASSEMBLY___INT-1_GCS0_339_S2
  *Elset, elset=ASSEMBLY___INT-1_GCS0_339_S3
  *Elset, elset=ASSEMBLY___INT-1_GCS0_339_S4
  *Elset, elset=ASSEMBLY___INT-1_GCS0_341_S1
  *Elset, elset=ASSEMBLY___INT-1_GCS0_341_S2
  *Elset, elset=ASSEMBLY___INT-1_GCS0_341_S3
  *Elset, elset=ASSEMBLY___INT-1_GCS0_341_S4
  *Elset, elset=ASSEMBLY___INT-1_GCS0_342_S4
  *Elset, elset=ASSEMBLY___INT-1_GCS0_342_S6
  *Elset, elset=ASSEMBLY___INT-1_GCS0_343_S1
  *Elset, elset=ASSEMBLY___INT-1_GCS0_343_S2
  *Elset, elset=ASSEMBLY___INT-1_GCS0_343_S3
  *Elset, elset=ASSEMBLY___INT-1_GCS0_343_S4
  *Elset, elset=ASSEMBLY___INT-1_GCS0_345_S1
  *Elset, elset=ASSEMBLY___INT-1_GCS0_345_S2
  *Elset, elset=ASSEMBLY___INT-1_GCS0_345_S3
  *Elset, elset=ASSEMBLY___INT-1_GCS0_345_S4
  *Elset, elset=ASSEMBLY___INT-1_GCS0_346_S3
  *Elset, elset=ASSEMBLY___INT-1_GCS0_347_S1
  *Elset, elset=ASSEMBLY___INT-1_GCS0_347_S2
  *Elset, elset=ASSEMBLY___INT-1_GCS0_347_S3
  *Elset, elset=ASSEMBLY___INT-1_GCS0_347_S4
  *Elset, elset=ASSEMBLY___INT-1_GCS0_349_S1
  *Elset, elset=ASSEMBLY___INT-1_GCS0_349_S2
  *Elset, elset=ASSEMBLY___INT-1_GCS0_349_S3
  *Elset, elset=ASSEMBLY___INT-1_GCS0_349_S4
  *Elset, elset=ASSEMBLY___INT-1_GCS0_34_S3
  *Elset, elset=ASSEMBLY___INT-1_GCS0_34_S4
  *Elset, elset=ASSEMBLY___INT-1_GCS0_34_S5
  *Elset, elset=ASSEMBLY___INT-1_GCS0_34_S6
  *Elset, elset=ASSEMBLY___INT-1_GCS0_350_S3
  *Elset, elset=ASSEMBLY___INT-1_GCS0_350_S4
  *Elset, elset=ASSEMBLY___INT-1_GCS0_350_S5
  *Elset, elset=ASSEMBLY___INT-1_GCS0_350_S6
  *Elset, elset=ASSEMBLY___INT-1_GCS0_351_S1
  *Elset, elset=ASSEMBLY___INT-1_GCS0_351_S2
  *Elset, elset=ASSEMBLY___INT-1_GCS0_351_S3
  *Elset, elset=ASSEMBLY___INT-1_GCS0_351_S4
  *Elset, elset=ASSEMBLY___INT-1_GCS0_353_S1
  *Elset, elset=ASSEMBLY___INT-1_GCS0_353_S2
  *Elset, elset=ASSEMBLY___INT-1_GCS0_353_S3
  *Elset, elset=ASSEMBLY___INT-1_GCS0_353_S4
  *Elset, elset=ASSEMBLY___INT-1_GCS0_354_S2
  *Elset, elset=ASSEMBLY___INT-1_GCS0_354_S3
  *Elset, elset=ASSEMBLY___INT-1_GCS0_355_S1
  *Elset, elset=ASSEMBLY___INT-1_GCS0_355_S2
  *Elset, elset=ASSEMBLY___INT-1_GCS0_355_S3
  *Elset, elset=ASSEMBLY___INT-1_GCS0_355_S4
  *Elset, elset=ASSEMBLY___INT-1_GCS0_357_S1
  *Elset, elset=ASSEMBLY___INT-1_GCS0_357_S2
  *Elset, elset=ASSEMBLY___INT-1_GCS0_357_S3
  *Elset, elset=ASSEMBLY___INT-1_GCS0_357_S4
  *Elset, elset=ASSEMBLY___INT-1_GCS0_358_S4
  *Elset, elset=ASSEMBLY___INT-1_GCS0_358_S6
  *Elset, elset=ASSEMBLY___INT-1_GCS0_359_S1
  *Elset, elset=ASSEMBLY___INT-1_GCS0_359_S2
  *Elset, elset=ASSEMBLY___INT-1_GCS0_359_S3
  *Elset, elset=ASSEMBLY___INT-1_GCS0_359_S4
  *Elset, elset=ASSEMBLY___INT-1_GCS0_361_S1
  *Elset, elset=ASSEMBLY___INT-1_GCS0_361_S2
  *Elset, elset=ASSEMBLY___INT-1_GCS0_361_S3
  *Elset, elset=ASSEMBLY___INT-1_GCS0_361_S4
  *Elset, elset=ASSEMBLY___INT-1_GCS0_362_S3
  *Elset, elset=ASSEMBLY___INT-1_GCS0_363_S1
  *Elset, elset=ASSEMBLY___INT-1_GCS0_363_S2
  *Elset, elset=ASSEMBLY___INT-1_GCS0_363_S3
  *Elset, elset=ASSEMBLY___INT-1_GCS0_363_S4
  *Elset, elset=ASSEMBLY___INT-1_GCS0_365_S1
  *Elset, elset=ASSEMBLY___INT-1_GCS0_365_S2
  *Elset, elset=ASSEMBLY___INT-1_GCS0_365_S3
  *Elset, elset=ASSEMBLY___INT-1_GCS0_365_S4
  *Elset, elset=ASSEMBLY___INT-1_GCS0_366_S4
  *Elset, elset=ASSEMBLY___INT-1_GCS0_366_S6
  *Elset, elset=ASSEMBLY___INT-1_GCS0_367_S1
  *Elset, elset=ASSEMBLY___INT-1_GCS0_367_S2
  *Elset, elset=ASSEMBLY___INT-1_GCS0_367_S3
  *Elset, elset=ASSEMBLY___INT-1_GCS0_367_S4
  *Elset, elset=ASSEMBLY___INT-1_GCS0_369_S1
  *Elset, elset=ASSEMBLY___INT-1_GCS0_369_S2
  *Elset, elset=ASSEMBLY___INT-1_GCS0_369_S3
  *Elset, elset=ASSEMBLY___INT-1_GCS0_369_S4
  *Elset, elset=ASSEMBLY___INT-1_GCS0_36_S3
  *Elset, elset=ASSEMBLY___INT-1_GCS0_36_S4
  *Elset, elset=ASSEMBLY___INT-1_GCS0_36_S5
  *Elset, elset=ASSEMBLY___INT-1_GCS0_36_S6
  *Elset, elset=ASSEMBLY___INT-1_GCS0_370_S3
  *Elset, elset=ASSEMBLY___INT-1_GCS0_371_S1
  *Elset, elset=ASSEMBLY___INT-1_GCS0_371_S2
  *Elset, elset=ASSEMBLY___INT-1_GCS0_371_S3
  *Elset, elset=ASSEMBLY___INT-1_GCS0_371_S4
  *Elset, elset=ASSEMBLY___INT-1_GCS0_373_S1
  *Elset, elset=ASSEMBLY___INT-1_GCS0_373_S2
  *Elset, elset=ASSEMBLY___INT-1_GCS0_373_S3
  *Elset, elset=ASSEMBLY___INT-1_GCS0_373_S4
  *Elset, elset=ASSEMBLY___INT-1_GCS0_374_S4
  *Elset, elset=ASSEMBLY___INT-1_GCS0_374_S5
  *Elset, elset=ASSEMBLY___INT-1_GCS0_374_S6
  *Elset, elset=ASSEMBLY___INT-1_GCS0_375_S1
  *Elset, elset=ASSEMBLY___INT-1_GCS0_375_S2
  *Elset, elset=ASSEMBLY___INT-1_GCS0_375_S3
  *Elset, elset=ASSEMBLY___INT-1_GCS0_375_S4
  *Elset, elset=ASSEMBLY___INT-1_GCS0_377_S1
  *Elset, elset=ASSEMBLY___INT-1_GCS0_377_S2
  *Elset, elset=ASSEMBLY___INT-1_GCS0_377_S3
  *Elset, elset=ASSEMBLY___INT-1_GCS0_377_S4
  *Elset, elset=ASSEMBLY___INT-1_GCS0_378_S3
  *Elset, elset=ASSEMBLY___INT-1_GCS0_378_S4
  *Elset, elset=ASSEMBLY___INT-1_GCS0_379_S1
  *Elset, elset=ASSEMBLY___INT-1_GCS0_379_S2
  *Elset, elset=ASSEMBLY___INT-1_GCS0_379_S3
  *Elset, elset=ASSEMBLY___INT-1_GCS0_379_S4
  *Elset, elset=ASSEMBLY___INT-1_GCS0_381_S1
  *Elset, elset=ASSEMBLY___INT-1_GCS0_381_S2
  *Elset, elset=ASSEMBLY___INT-1_GCS0_381_S3
  *Elset, elset=ASSEMBLY___INT-1_GCS0_381_S4
  *Elset, elset=ASSEMBLY___INT-1_GCS0_382_S4
  *Elset, elset=ASSEMBLY___INT-1_GCS0_382_S5
  *Elset, elset=ASSEMBLY___INT-1_GCS0_382_S6
  *Elset, elset=ASSEMBLY___INT-1_GCS0_383_S1
  *Elset, elset=ASSEMBLY___INT-1_GCS0_383_S2
  *Elset, elset=ASSEMBLY___INT-1_GCS0_383_S3
  *Elset, elset=ASSEMBLY___INT-1_GCS0_383_S4
  *Elset, elset=ASSEMBLY___INT-1_GCS0_385_S1
  *Elset, elset=ASSEMBLY___INT-1_GCS0_385_S2
  *Elset, elset=ASSEMBLY___INT-1_GCS0_385_S3
  *Elset, elset=ASSEMBLY___INT-1_GCS0_385_S4
  *Elset, elset=ASSEMBLY___INT-1_GCS0_386_S3
  *Elset, elset=ASSEMBLY___INT-1_GCS0_387_S1
  *Elset, elset=ASSEMBLY___INT-1_GCS0_387_S2
  *Elset, elset=ASSEMBLY___INT-1_GCS0_387_S3
  *Elset, elset=ASSEMBLY___INT-1_GCS0_387_S4
  *Elset, elset=ASSEMBLY___INT-1_GCS0_389_S1
  *Elset, elset=ASSEMBLY___INT-1_GCS0_389_S2
  *Elset, elset=ASSEMBLY___INT-1_GCS0_389_S3
  *Elset, elset=ASSEMBLY___INT-1_GCS0_389_S4
  *Elset, elset=ASSEMBLY___INT-1_GCS0_38_S4
  *Elset, elset=ASSEMBLY___INT-1_GCS0_38_S5
  *Elset, elset=ASSEMBLY___INT-1_GCS0_38_S6
  *Elset, elset=ASSEMBLY___INT-1_GCS0_390_S3
  *Elset, elset=ASSEMBLY___INT-1_GCS0_390_S5
  *Elset, elset=ASSEMBLY___INT-1_GCS0_391_S1
  *Elset, elset=ASSEMBLY___INT-1_GCS0_391_S2
  *Elset, elset=ASSEMBLY___INT-1_GCS0_391_S3
  *Elset, elset=ASSEMBLY___INT-1_GCS0_391_S4
  *Elset, elset=ASSEMBLY___INT-1_GCS0_393_S1
  *Elset, elset=ASSEMBLY___INT-1_GCS0_393_S2
  *Elset, elset=ASSEMBLY___INT-1_GCS0_393_S3
  *Elset, elset=ASSEMBLY___INT-1_GCS0_393_S4
  *Elset, elset=ASSEMBLY___INT-1_GCS0_394_S3
  *Elset, elset=ASSEMBLY___INT-1_GCS0_394_S4
  *Elset, elset=ASSEMBLY___INT-1_GCS0_395_S1
  *Elset, elset=ASSEMBLY___INT-1_GCS0_395_S2
  *Elset, elset=ASSEMBLY___INT-1_GCS0_395_S3
  *Elset, elset=ASSEMBLY___INT-1_GCS0_395_S4
  *Elset, elset=ASSEMBLY___INT-1_GCS0_397_S1
  *Elset, elset=ASSEMBLY___INT-1_GCS0_397_S2
  *Elset, elset=ASSEMBLY___INT-1_GCS0_397_S3
  *Elset, elset=ASSEMBLY___INT-1_GCS0_397_S4
  *Elset, elset=ASSEMBLY___INT-1_GCS0_398_S4
  *Elset, elset=ASSEMBLY___INT-1_GCS0_398_S5
  *Elset, elset=ASSEMBLY___INT-1_GCS0_398_S6
  *Elset, elset=ASSEMBLY___INT-1_GCS0_399_S1
  *Elset, elset=ASSEMBLY___INT-1_GCS0_399_S2
  *Elset, elset=ASSEMBLY___INT-1_GCS0_399_S3
  *Elset, elset=ASSEMBLY___INT-1_GCS0_399_S4
  *Elset, elset=ASSEMBLY___INT-1_GCS0_401_S1
  *Elset, elset=ASSEMBLY___INT-1_GCS0_401_S2
  *Elset, elset=ASSEMBLY___INT-1_GCS0_401_S3
  *Elset, elset=ASSEMBLY___INT-1_GCS0_401_S4
  *Elset, elset=ASSEMBLY___INT-1_GCS0_402_S1
  *Elset, elset=ASSEMBLY___INT-1_GCS0_402_S2
  *Elset, elset=ASSEMBLY___INT-1_GCS0_402_S3
  *Elset, elset=ASSEMBLY___INT-1_GCS0_403_S1
  *Elset, elset=ASSEMBLY___INT-1_GCS0_403_S3
  *Elset, elset=ASSEMBLY___INT-1_GCS0_403_S4
  *Elset, elset=ASSEMBLY___INT-1_GCS0_40_S3
  *Elset, elset=ASSEMBLY___INT-1_GCS0_40_S5
  *Elset, elset=ASSEMBLY___INT-1_GCS0_40_S6
  *Elset, elset=ASSEMBLY___INT-1_GCS0_42_S4
  *Elset, elset=ASSEMBLY___INT-1_GCS0_42_S6
  *Elset, elset=ASSEMBLY___INT-1_GCS0_44_S3
  *Elset, elset=ASSEMBLY___INT-1_GCS0_44_S4
  *Elset, elset=ASSEMBLY___INT-1_GCS0_44_S5
  *Elset, elset=ASSEMBLY___INT-1_GCS0_44_S6
  *Elset, elset=ASSEMBLY___INT-1_GCS0_46_S3
  *Elset, elset=ASSEMBLY___INT-1_GCS0_46_S4
  *Elset, elset=ASSEMBLY___INT-1_GCS0_46_S5
  *Elset, elset=ASSEMBLY___INT-1_GCS0_46_S6
  *Elset, elset=ASSEMBLY___INT-1_GCS0_48_S3
  *Elset, elset=ASSEMBLY___INT-1_GCS0_48_S4
  *Elset, elset=ASSEMBLY___INT-1_GCS0_48_S5
  *Elset, elset=ASSEMBLY___INT-1_GCS0_48_S6
  *Elset, elset=ASSEMBLY___INT-1_GCS0_49_S3
  *Elset, elset=ASSEMBLY___INT-1_GCS0_49_S4
  *Elset, elset=ASSEMBLY___INT-1_GCS0_49_S5
  *Elset, elset=ASSEMBLY___INT-1_GCS0_49_S6
  *Elset, elset=ASSEMBLY___INT-1_GCS0_50_S3
  *Elset, elset=ASSEMBLY___INT-1_GCS0_50_S4
  *Elset, elset=ASSEMBLY___INT-1_GCS0_50_S5
  *Elset, elset=ASSEMBLY___INT-1_GCS0_50_S6
  *Elset, elset=ASSEMBLY___INT-1_GCS0_51_S3
  *Elset, elset=ASSEMBLY___INT-1_GCS0_51_S4
  *Elset, elset=ASSEMBLY___INT-1_GCS0_51_S5
  *Elset, elset=ASSEMBLY___INT-1_GCS0_51_S6
  *Elset, elset=ASSEMBLY___INT-1_GCS0_52_S3
  *Elset, elset=ASSEMBLY___INT-1_GCS0_52_S4
  *Elset, elset=ASSEMBLY___INT-1_GCS0_52_S5
  *Elset, elset=ASSEMBLY___INT-1_GCS0_52_S6
  *Elset, elset=ASSEMBLY___INT-1_GCS0_53_S3
  *Elset, elset=ASSEMBLY___INT-1_GCS0_53_S4
  *Elset, elset=ASSEMBLY___INT-1_GCS0_53_S5
  *Elset, elset=ASSEMBLY___INT-1_GCS0_53_S6
  *Elset, elset=ASSEMBLY___INT-1_GCS0_57_S3
  *Elset, elset=ASSEMBLY___INT-1_GCS0_57_S4
  *Elset, elset=ASSEMBLY___INT-1_GCS0_58_S1
  *Elset, elset=ASSEMBLY___INT-1_GCS0_58_S2
  *Elset, elset=ASSEMBLY___INT-1_GCS0_58_S3
  *Elset, elset=ASSEMBLY___INT-1_GCS0_58_S4
  *Elset, elset=ASSEMBLY___INT-1_GCS0_59_S1
  *Elset, elset=ASSEMBLY___INT-1_GCS0_59_S3
  *Elset, elset=ASSEMBLY___INT-1_GCS0_59_S4
  *Elset, elset=ASSEMBLY___INT-1_GCS0_5_S4
  *Elset, elset=ASSEMBLY___INT-1_GCS0_5_S5
  *Elset, elset=ASSEMBLY___INT-1_GCS0_5_S6
  *Elset, elset=ASSEMBLY___INT-1_GCS0_60_S1
  *Elset, elset=ASSEMBLY___INT-1_GCS0_60_S2
  *Elset, elset=ASSEMBLY___INT-1_GCS0_60_S3
  *Elset, elset=ASSEMBLY___INT-1_GCS0_60_S4
  *Elset, elset=ASSEMBLY___INT-1_GCS0_61_S1
  *Elset, elset=ASSEMBLY___INT-1_GCS0_61_S2
  *Elset, elset=ASSEMBLY___INT-1_GCS0_61_S3
  *Elset, elset=ASSEMBLY___INT-1_GCS0_61_S4
  *Elset, elset=ASSEMBLY___INT-1_GCS0_62_S1
  *Elset, elset=ASSEMBLY___INT-1_GCS0_62_S2
  *Elset, elset=ASSEMBLY___INT-1_GCS0_62_S3
  *Elset, elset=ASSEMBLY___INT-1_GCS0_62_S4
  *Elset, elset=ASSEMBLY___INT-1_GCS0_63_S3
  *Elset, elset=ASSEMBLY___INT-1_GCS0_64_S1
  *Elset, elset=ASSEMBLY___INT-1_GCS0_64_S2
  *Elset, elset=ASSEMBLY___INT-1_GCS0_64_S3
  *Elset, elset=ASSEMBLY___INT-1_GCS0_64_S4
  *Elset, elset=ASSEMBLY___INT-1_GCS0_65_S1
  *Elset, elset=ASSEMBLY___INT-1_GCS0_65_S2
  *Elset, elset=ASSEMBLY___INT-1_GCS0_65_S3
  *Elset, elset=ASSEMBLY___INT-1_GCS0_65_S4
  *Elset, elset=ASSEMBLY___INT-1_GCS0_66_S1
  *Elset, elset=ASSEMBLY___INT-1_GCS0_66_S2
  *Elset, elset=ASSEMBLY___INT-1_GCS0_66_S3
  *Elset, elset=ASSEMBLY___INT-1_GCS0_66_S4
  *Elset, elset=ASSEMBLY___INT-1_GCS0_67_S1
  *Elset, elset=ASSEMBLY___INT-1_GCS0_67_S2
  *Elset, elset=ASSEMBLY___INT-1_GCS0_67_S3
  *Elset, elset=ASSEMBLY___INT-1_GCS0_67_S4
  *Elset, elset=ASSEMBLY___INT-1_GCS0_68_S1
  *Elset, elset=ASSEMBLY___INT-1_GCS0_68_S2
  *Elset, elset=ASSEMBLY___INT-1_GCS0_68_S3
  *Elset, elset=ASSEMBLY___INT-1_GCS0_68_S4
  *Elset, elset=ASSEMBLY___INT-1_GCS0_71_S1
  *Elset, elset=ASSEMBLY___INT-1_GCS0_71_S2
  *Elset, elset=ASSEMBLY___INT-1_GCS0_71_S3
  *Elset, elset=ASSEMBLY___INT-1_GCS0_71_S4
  *Elset, elset=ASSEMBLY___INT-1_GCS0_74_S1
  *Elset, elset=ASSEMBLY___INT-1_GCS0_74_S2
  *Elset, elset=ASSEMBLY___INT-1_GCS0_74_S3
  *Elset, elset=ASSEMBLY___INT-1_GCS0_74_S4
  *Elset, elset=ASSEMBLY___INT-1_GCS0_75_S1
  *Elset, elset=ASSEMBLY___INT-1_GCS0_75_S2
  *Elset, elset=ASSEMBLY___INT-1_GCS0_75_S3
  *Elset, elset=ASSEMBLY___INT-1_GCS0_75_S4
  *Elset, elset=ASSEMBLY___INT-1_GCS0_77_S1
  *Elset, elset=ASSEMBLY___INT-1_GCS0_77_S2
  *Elset, elset=ASSEMBLY___INT-1_GCS0_77_S3
  *Elset, elset=ASSEMBLY___INT-1_GCS0_77_S4
  *Elset, elset=ASSEMBLY___INT-1_GCS0_79_S1
  *Elset, elset=ASSEMBLY___INT-1_GCS0_79_S2
  *Elset, elset=ASSEMBLY___INT-1_GCS0_79_S3
  *Elset, elset=ASSEMBLY___INT-1_GCS0_79_S4
  *Elset, elset=ASSEMBLY___INT-1_GCS0_7_S3
  *Elset, elset=ASSEMBLY___INT-1_GCS0_7_S4
  *Elset, elset=ASSEMBLY___INT-1_GCS0_7_S5
  *Elset, elset=ASSEMBLY___INT-1_GCS0_80_S1
  *Elset, elset=ASSEMBLY___INT-1_GCS0_80_S2
  *Elset, elset=ASSEMBLY___INT-1_GCS0_80_S3
  *Elset, elset=ASSEMBLY___INT-1_GCS0_80_S4
  *Elset, elset=ASSEMBLY___INT-1_GCS0_81_S1
  *Elset, elset=ASSEMBLY___INT-1_GCS0_81_S2
  *Elset, elset=ASSEMBLY___INT-1_GCS0_81_S3
  *Elset, elset=ASSEMBLY___INT-1_GCS0_81_S4
  *Elset, elset=ASSEMBLY___INT-1_GCS0_82_S1
  *Elset, elset=ASSEMBLY___INT-1_GCS0_82_S2
  *Elset, elset=ASSEMBLY___INT-1_GCS0_82_S3
  *Elset, elset=ASSEMBLY___INT-1_GCS0_82_S4
  *Elset, elset=ASSEMBLY___INT-1_GCS0_83_S1
  *Elset, elset=ASSEMBLY___INT-1_GCS0_83_S2
  *Elset, elset=ASSEMBLY___INT-1_GCS0_83_S3
  *Elset, elset=ASSEMBLY___INT-1_GCS0_83_S4
  *Elset, elset=ASSEMBLY___INT-1_GCS0_84_S1
  *Elset, elset=ASSEMBLY___INT-1_GCS0_84_S2
  *Elset, elset=ASSEMBLY___INT-1_GCS0_84_S3
  *Elset, elset=ASSEMBLY___INT-1_GCS0_84_S4
  *Elset, elset=ASSEMBLY___INT-1_GCS0_85_S1
  *Elset, elset=ASSEMBLY___INT-1_GCS0_85_S2
  *Elset, elset=ASSEMBLY___INT-1_GCS0_85_S3
  *Elset, elset=ASSEMBLY___INT-1_GCS0_85_S4
  *Elset, elset=ASSEMBLY___INT-1_GCS0_86_S1
  *Elset, elset=ASSEMBLY___INT-1_GCS0_86_S2
  *Elset, elset=ASSEMBLY___INT-1_GCS0_86_S3
  *Elset, elset=ASSEMBLY___INT-1_GCS0_86_S4
  *Elset, elset=ASSEMBLY___INT-1_GCS0_87_S1
  *Elset, elset=ASSEMBLY___INT-1_GCS0_87_S2
  *Elset, elset=ASSEMBLY___INT-1_GCS0_87_S3
  *Elset, elset=ASSEMBLY___INT-1_GCS0_87_S4
  *Elset, elset=ASSEMBLY___INT-1_GCS0_88_S1
  *Elset, elset=ASSEMBLY___INT-1_GCS0_88_S3
  *Elset, elset=ASSEMBLY___INT-1_GCS0_88_S4
  *Elset, elset=ASSEMBLY___INT-1_GCS0_90_S1
  *Elset, elset=ASSEMBLY___INT-1_GCS0_90_S2
  *Elset, elset=ASSEMBLY___INT-1_GCS0_90_S3
  *Elset, elset=ASSEMBLY___INT-1_GCS0_90_S4
  *Elset, elset=ASSEMBLY___PICKEDSURF1644_S1
  *Elset, elset=ASSEMBLY___PICKEDSURF1645_S1
  *Elset, elset=ASSEMBLY___PICKEDSURF1646_S1
  *Elset, elset=ASSEMBLY___PICKEDSURF1647_S1
  *Elset, elset=ASSEMBLY___PICKEDSURF46_S3
  *Elset, elset=ASSEMBLY___PICKEDSURF46_S4
  *Elset, elset=ASSEMBLY___PICKEDSURF46_S5
  *Elset, elset=ASSEMBLY___PICKEDSURF47_S4
  *Elset, elset=ASSEMBLY___PICKEDSURF47_S6
  *Elset, elset=ASSEMBLY___PICKEDSURF48_S3
  *Elset, elset=ASSEMBLY___PICKEDSURF48_S5
  *Elset, elset=ASSEMBLY___PICKEDSURF48_S6
  *Elset, elset=ASSEMBLY___PICKEDSURF49_S4
  *Elset, elset=ASSEMBLY___PICKEDSURF49_S6
  *Elset, elset=ASSEMBLY___PICKEDSURF50_S3
  *Elset, elset=ASSEMBLY___PICKEDSURF50_S4
  *Elset, elset=ASSEMBLY___PICKEDSURF50_S5
  *Elset, elset=ASSEMBLY___PICKEDSURF51_S4
  *Elset, elset=ASSEMBLY___PICKEDSURF51_S6
  *Elset, elset=ASSEMBLY___PICKEDSURF52_S3
  *Elset, elset=ASSEMBLY___PICKEDSURF52_S5
  *Elset, elset=ASSEMBLY___PICKEDSURF52_S6
  *Elset, elset=ASSEMBLY___PICKEDSURF53_S4
  *Elset, elset=ASSEMBLY___PICKEDSURF53_S6
  *Elset, elset=ASSEMBLY___T0_NUT1-1_M_S3
  *Elset, elset=ASSEMBLY___T0_NUT1-1_M_S4
  *Elset, elset=ASSEMBLY___T0_NUT1-1_M_S5
  *Elset, elset=ASSEMBLY___T0_NUT1-1_M_S6
  *Elset, elset=ASSEMBLY___T0_NUT1-1_S_S1
  *Elset, elset=ASSEMBLY___T0_NUT1-1_S_S2
  *Elset, elset=ASSEMBLY___T0_NUT1-1_S_S3
  *Elset, elset=ASSEMBLY___T0_NUT1-1_S_S4
  *Elset, elset=ASSEMBLY___T0_NUT2-1_M_S3
  *Elset, elset=ASSEMBLY___T0_NUT2-1_M_S4
  *Elset, elset=ASSEMBLY___T0_NUT2-1_M_S5
  *Elset, elset=ASSEMBLY___T0_NUT2-1_M_S6
  *Elset, elset=ASSEMBLY___T0_NUT2-1_S_S1
  *Elset, elset=ASSEMBLY___T0_NUT2-1_S_S2
  *Elset, elset=ASSEMBLY___T0_NUT2-1_S_S3
  *Elset, elset=ASSEMBLY___T0_NUT2-1_S_S4
  *Elset, elset=ASSEMBLY___T0_NUT3-1_M_S3
  *Elset, elset=ASSEMBLY___T0_NUT3-1_M_S4
  *Elset, elset=ASSEMBLY___T0_NUT3-1_M_S5
  *Elset, elset=ASSEMBLY___T0_NUT3-1_M_S6
  *Elset, elset=ASSEMBLY___T0_NUT3-1_S_S1
  *Elset, elset=ASSEMBLY___T0_NUT3-1_S_S2
  *Elset, elset=ASSEMBLY___T0_NUT3-1_S_S3
  *Elset, elset=ASSEMBLY___T0_NUT3-1_S_S4
  *Elset, elset=ASSEMBLY___T0_NUT4-1_M_S3
  *Elset, elset=ASSEMBLY___T0_NUT4-1_M_S4
  *Elset, elset=ASSEMBLY___T0_NUT4-1_M_S6
  *Elset, elset=ASSEMBLY___T0_NUT4-1_S_S1
  *Elset, elset=ASSEMBLY___T0_NUT4-1_S_S2
  *Elset, elset=ASSEMBLY___T0_NUT4-1_S_S3
  *Elset, elset=ASSEMBLY___T0_NUT4-1_S_S4
  *Elset, elset=ASSEMBLY___T0_WHEEL-CENTRE-1_M_S3
  *Elset, elset=ASSEMBLY___T0_WHEEL-CENTRE-1_M_S4
  *Elset, elset=ASSEMBLY___T0_WHEEL-CENTRE-1_M_S5
  *Elset, elset=ASSEMBLY___T0_WHEEL-CENTRE-1_S_S1
  *Elset, elset=ASSEMBLY___T0_WHEEL-CENTRE-1_S_S2
  *Elset, elset=ASSEMBLY___T0_WHEEL-CENTRE-1_S_S3
  *Elset, elset=ASSEMBLY___T0_WHEEL-CENTRE-1_S_S4
  *Elset, elset=ASSEMBLY___T10_WHEEL-CENTRE-1_M_S3
  *Elset, elset=ASSEMBLY___T10_WHEEL-CENTRE-1_M_S4
  *Elset, elset=ASSEMBLY___T10_WHEEL-CENTRE-1_M_S5
  *Elset, elset=ASSEMBLY___T10_WHEEL-CENTRE-1_M_S6
  *Elset, elset=ASSEMBLY___T10_WHEEL-CENTRE-1_S_S1
  *Elset, elset=ASSEMBLY___T10_WHEEL-CENTRE-1_S_S3
  *Elset, elset=ASSEMBLY___T10_WHEEL-CENTRE-1_S_S4
  *Elset, elset=ASSEMBLY___T11_WHEEL-CENTRE-1_M_S3
  *Elset, elset=ASSEMBLY___T11_WHEEL-CENTRE-1_M_S4
  *Elset, elset=ASSEMBLY___T11_WHEEL-CENTRE-1_M_S5
  *Elset, elset=ASSEMBLY___T11_WHEEL-CENTRE-1_M_S6
  *Elset, elset=ASSEMBLY___T11_WHEEL-CENTRE-1_S_S1
  *Elset, elset=ASSEMBLY___T11_WHEEL-CENTRE-1_S_S2
  *Elset, elset=ASSEMBLY___T11_WHEEL-CENTRE-1_S_S3
  *Elset, elset=ASSEMBLY___T11_WHEEL-CENTRE-1_S_S4
  *Elset, elset=ASSEMBLY___T12_WHEEL-CENTRE-1_M_S3
  *Elset, elset=ASSEMBLY___T12_WHEEL-CENTRE-1_M_S4
  *Elset, elset=ASSEMBLY___T12_WHEEL-CENTRE-1_M_S5
  *Elset, elset=ASSEMBLY___T12_WHEEL-CENTRE-1_M_S6
  *Elset, elset=ASSEMBLY___T12_WHEEL-CENTRE-1_S_S2
  *Elset, elset=ASSEMBLY___T12_WHEEL-CENTRE-1_S_S3
  *Elset, elset=ASSEMBLY___T12_WHEEL-CENTRE-1_S_S4
  *Elset, elset=ASSEMBLY___T13_WHEEL-CENTRE-1_M_S3
  *Elset, elset=ASSEMBLY___T13_WHEEL-CENTRE-1_M_S4
  *Elset, elset=ASSEMBLY___T13_WHEEL-CENTRE-1_M_S5
  *Elset, elset=ASSEMBLY___T13_WHEEL-CENTRE-1_M_S6
  *Elset, elset=ASSEMBLY___T13_WHEEL-CENTRE-1_S_S1
  *Elset, elset=ASSEMBLY___T13_WHEEL-CENTRE-1_S_S2
  *Elset, elset=ASSEMBLY___T13_WHEEL-CENTRE-1_S_S3
  *Elset, elset=ASSEMBLY___T13_WHEEL-CENTRE-1_S_S4
  *Elset, elset=ASSEMBLY___T14_WHEEL-CENTRE-1_M_S3
  *Elset, elset=ASSEMBLY___T14_WHEEL-CENTRE-1_M_S4
  *Elset, elset=ASSEMBLY___T14_WHEEL-CENTRE-1_M_S5
  *Elset, elset=ASSEMBLY___T14_WHEEL-CENTRE-1_S_S1
  *Elset, elset=ASSEMBLY___T14_WHEEL-CENTRE-1_S_S2
  *Elset, elset=ASSEMBLY___T14_WHEEL-CENTRE-1_S_S3
  *Elset, elset=ASSEMBLY___T14_WHEEL-CENTRE-1_S_S4
  *Elset, elset=ASSEMBLY___T15_WHEEL-CENTRE-1_M_S3
  *Elset, elset=ASSEMBLY___T15_WHEEL-CENTRE-1_M_S4
  *Elset, elset=ASSEMBLY___T15_WHEEL-CENTRE-1_M_S5
  *Elset, elset=ASSEMBLY___T15_WHEEL-CENTRE-1_S_S1
  *Elset, elset=ASSEMBLY___T15_WHEEL-CENTRE-1_S_S2
  *Elset, elset=ASSEMBLY___T15_WHEEL-CENTRE-1_S_S3
  *Elset, elset=ASSEMBLY___T15_WHEEL-CENTRE-1_S_S4
  *Elset, elset=ASSEMBLY___T16_WHEEL-CENTRE-1_M_S3
  *Elset, elset=ASSEMBLY___T16_WHEEL-CENTRE-1_M_S5
  *Elset, elset=ASSEMBLY___T16_WHEEL-CENTRE-1_S_S1
  *Elset, elset=ASSEMBLY___T16_WHEEL-CENTRE-1_S_S2
  *Elset, elset=ASSEMBLY___T16_WHEEL-CENTRE-1_S_S3
  *Elset, elset=ASSEMBLY___T16_WHEEL-CENTRE-1_S_S4
  *Elset, elset=ASSEMBLY___T17_WHEEL-CENTRE-1_M_S3
  *Elset, elset=ASSEMBLY___T17_WHEEL-CENTRE-1_M_S5
  *Elset, elset=ASSEMBLY___T17_WHEEL-CENTRE-1_M_S6
  *Elset, elset=ASSEMBLY___T17_WHEEL-CENTRE-1_S_S1
  *Elset, elset=ASSEMBLY___T17_WHEEL-CENTRE-1_S_S2
  *Elset, elset=ASSEMBLY___T17_WHEEL-CENTRE-1_S_S3
  *Elset, elset=ASSEMBLY___T17_WHEEL-CENTRE-1_S_S4
  *Elset, elset=ASSEMBLY___T18_WHEEL-CENTRE-1_M_S3
  *Elset, elset=ASSEMBLY___T18_WHEEL-CENTRE-1_M_S5
  *Elset, elset=ASSEMBLY___T18_WHEEL-CENTRE-1_M_S6
  *Elset, elset=ASSEMBLY___T18_WHEEL-CENTRE-1_S_S1
  *Elset, elset=ASSEMBLY___T18_WHEEL-CENTRE-1_S_S2
  *Elset, elset=ASSEMBLY___T18_WHEEL-CENTRE-1_S_S3
  *Elset, elset=ASSEMBLY___T18_WHEEL-CENTRE-1_S_S4
  *Elset, elset=ASSEMBLY___T19_WHEEL-CENTRE-1_M_S3
  *Elset, elset=ASSEMBLY___T19_WHEEL-CENTRE-1_M_S4
  *Elset, elset=ASSEMBLY___T19_WHEEL-CENTRE-1_M_S5
  *Elset, elset=ASSEMBLY___T19_WHEEL-CENTRE-1_M_S6
  *Elset, elset=ASSEMBLY___T19_WHEEL-CENTRE-1_S_S1
  *Elset, elset=ASSEMBLY___T19_WHEEL-CENTRE-1_S_S2
  *Elset, elset=ASSEMBLY___T19_WHEEL-CENTRE-1_S_S3
  *Elset, elset=ASSEMBLY___T19_WHEEL-CENTRE-1_S_S4
  *Elset, elset=ASSEMBLY___T1_WHEEL-CENTRE-1_M_S3
  *Elset, elset=ASSEMBLY___T1_WHEEL-CENTRE-1_M_S5
  *Elset, elset=ASSEMBLY___T1_WHEEL-CENTRE-1_M_S6
  *Elset, elset=ASSEMBLY___T1_WHEEL-CENTRE-1_S_S2
  *Elset, elset=ASSEMBLY___T1_WHEEL-CENTRE-1_S_S3
  *Elset, elset=ASSEMBLY___T1_WHEEL-CENTRE-1_S_S4
  *Elset, elset=ASSEMBLY___T20_WHEEL-CENTRE-1_M_S3
  *Elset, elset=ASSEMBLY___T20_WHEEL-CENTRE-1_M_S4
  *Elset, elset=ASSEMBLY___T20_WHEEL-CENTRE-1_M_S6
  *Elset, elset=ASSEMBLY___T20_WHEEL-CENTRE-1_S_S1
  *Elset, elset=ASSEMBLY___T20_WHEEL-CENTRE-1_S_S2
  *Elset, elset=ASSEMBLY___T20_WHEEL-CENTRE-1_S_S3
  *Elset, elset=ASSEMBLY___T20_WHEEL-CENTRE-1_S_S4
  *Elset, elset=ASSEMBLY___T21_WHEEL-CENTRE-1_M_S3
  *Elset, elset=ASSEMBLY___T21_WHEEL-CENTRE-1_M_S5
  *Elset, elset=ASSEMBLY___T21_WHEEL-CENTRE-1_M_S6
  *Elset, elset=ASSEMBLY___T21_WHEEL-CENTRE-1_S_S1
  *Elset, elset=ASSEMBLY___T21_WHEEL-CENTRE-1_S_S2
  *Elset, elset=ASSEMBLY___T21_WHEEL-CENTRE-1_S_S3
  *Elset, elset=ASSEMBLY___T21_WHEEL-CENTRE-1_S_S4
  *Elset, elset=ASSEMBLY___T2_WHEEL-CENTRE-1_M_S3
  *Elset, elset=ASSEMBLY___T2_WHEEL-CENTRE-1_M_S4
  *Elset, elset=ASSEMBLY___T2_WHEEL-CENTRE-1_M_S5
  *Elset, elset=ASSEMBLY___T2_WHEEL-CENTRE-1_M_S6
  *Elset, elset=ASSEMBLY___T2_WHEEL-CENTRE-1_S_S2
  *Elset, elset=ASSEMBLY___T2_WHEEL-CENTRE-1_S_S3
  *Elset, elset=ASSEMBLY___T3_WHEEL-CENTRE-1_M_S3
  *Elset, elset=ASSEMBLY___T3_WHEEL-CENTRE-1_M_S5
  *Elset, elset=ASSEMBLY___T3_WHEEL-CENTRE-1_M_S6
  *Elset, elset=ASSEMBLY___T3_WHEEL-CENTRE-1_S_S1
  *Elset, elset=ASSEMBLY___T3_WHEEL-CENTRE-1_S_S2
  *Elset, elset=ASSEMBLY___T3_WHEEL-CENTRE-1_S_S3
  *Elset, elset=ASSEMBLY___T4_WHEEL-CENTRE-1_M_S3
  *Elset, elset=ASSEMBLY___T4_WHEEL-CENTRE-1_M_S4
  *Elset, elset=ASSEMBLY___T4_WHEEL-CENTRE-1_M_S5
  *Elset, elset=ASSEMBLY___T4_WHEEL-CENTRE-1_M_S6
  *Elset, elset=ASSEMBLY___T4_WHEEL-CENTRE-1_S_S1
  *Elset, elset=ASSEMBLY___T4_WHEEL-CENTRE-1_S_S2
  *Elset, elset=ASSEMBLY___T4_WHEEL-CENTRE-1_S_S3
  *Elset, elset=ASSEMBLY___T4_WHEEL-CENTRE-1_S_S4
  *Elset, elset=ASSEMBLY___T5_WHEEL-CENTRE-1_M_S3
  *Elset, elset=ASSEMBLY___T5_WHEEL-CENTRE-1_M_S4
  *Elset, elset=ASSEMBLY___T5_WHEEL-CENTRE-1_M_S5
  *Elset, elset=ASSEMBLY___T5_WHEEL-CENTRE-1_M_S6
  *Elset, elset=ASSEMBLY___T5_WHEEL-CENTRE-1_S_S1
  *Elset, elset=ASSEMBLY___T5_WHEEL-CENTRE-1_S_S2
  *Elset, elset=ASSEMBLY___T5_WHEEL-CENTRE-1_S_S3
  *Elset, elset=ASSEMBLY___T6_WHEEL-CENTRE-1_M_S3
  *Elset, elset=ASSEMBLY___T6_WHEEL-CENTRE-1_M_S4
  *Elset, elset=ASSEMBLY___T6_WHEEL-CENTRE-1_M_S5
  *Elset, elset=ASSEMBLY___T6_WHEEL-CENTRE-1_M_S6
  *Elset, elset=ASSEMBLY___T6_WHEEL-CENTRE-1_S_S1
  *Elset, elset=ASSEMBLY___T6_WHEEL-CENTRE-1_S_S2
  *Elset, elset=ASSEMBLY___T6_WHEEL-CENTRE-1_S_S3
  *Elset, elset=ASSEMBLY___T6_WHEEL-CENTRE-1_S_S4
  *Elset, elset=ASSEMBLY___T7_WHEEL-CENTRE-1_M_S4
  *Elset, elset=ASSEMBLY___T7_WHEEL-CENTRE-1_M_S6
  *Elset, elset=ASSEMBLY___T7_WHEEL-CENTRE-1_S_S1
  *Elset, elset=ASSEMBLY___T7_WHEEL-CENTRE-1_S_S2
  *Elset, elset=ASSEMBLY___T7_WHEEL-CENTRE-1_S_S3
  *Elset, elset=ASSEMBLY___T7_WHEEL-CENTRE-1_S_S4
  *Elset, elset=ASSEMBLY___T8_WHEEL-CENTRE-1_M_S3
  *Elset, elset=ASSEMBLY___T8_WHEEL-CENTRE-1_M_S4
  *Elset, elset=ASSEMBLY___T8_WHEEL-CENTRE-1_M_S6
  *Elset, elset=ASSEMBLY___T8_WHEEL-CENTRE-1_S_S1
  *Elset, elset=ASSEMBLY___T8_WHEEL-CENTRE-1_S_S2
  *Elset, elset=ASSEMBLY___T8_WHEEL-CENTRE-1_S_S3
  *Elset, elset=ASSEMBLY___T8_WHEEL-CENTRE-1_S_S4
  *Elset, elset=ASSEMBLY___T9_WHEEL-CENTRE-1_M_S3
  *Elset, elset=ASSEMBLY___T9_WHEEL-CENTRE-1_M_S4
  *Elset, elset=ASSEMBLY___T9_WHEEL-CENTRE-1_M_S5
  *Elset, elset=ASSEMBLY___T9_WHEEL-CENTRE-1_M_S6
  *Elset, elset=ASSEMBLY___T9_WHEEL-CENTRE-1_S_S1
  *Elset, elset=ASSEMBLY___T9_WHEEL-CENTRE-1_S_S2
  *Elset, elset=ASSEMBLY___T9_WHEEL-CENTRE-1_S_S3
  *Elset, elset=ASSEMBLY___T9_WHEEL-CENTRE-1_S_S4
  *tie, name=ASSEMBLY__T0_NUT1-1, adjust=NO
  *tie, name=ASSEMBLY__T0_NUT1-1-NODES, adjust=NO
  *tie, name=ASSEMBLY__T0_NUT2-1, adjust=NO
  *tie, name=ASSEMBLY__T0_NUT2-1-NODES, adjust=NO
  *tie, name=ASSEMBLY__T0_NUT3-1, adjust=NO
  *tie, name=ASSEMBLY__T0_NUT3-1-NODES, adjust=NO
  *tie, name=ASSEMBLY__T0_NUT4-1, adjust=NO
  *tie, name=ASSEMBLY__T0_NUT4-1-NODES, adjust=NO
  *tie, name=ASSEMBLY__T0_WHEEL-CENTRE-1, adjust=NO
  *tie, name=ASSEMBLY__T0_WHEEL-CENTRE-1-NODES, adjust=NO
  *tie, name=ASSEMBLY__T1_WHEEL-CENTRE-1, adjust=NO
  *tie, name=ASSEMBLY__T1_WHEEL-CENTRE-1-NODES, adjust=NO
  *tie, name=ASSEMBLY__T2_WHEEL-CENTRE-1, adjust=NO
  *tie, name=ASSEMBLY__T2_WHEEL-CENTRE-1-NODES, adjust=NO
  *tie, name=ASSEMBLY__T3_WHEEL-CENTRE-1, adjust=NO
  *tie, name=ASSEMBLY__T3_WHEEL-CENTRE-1-NODES, adjust=NO
  *tie, name=ASSEMBLY__T4_WHEEL-CENTRE-1, adjust=NO
  *tie, name=ASSEMBLY__T4_WHEEL-CENTRE-1-NODES, adjust=NO
  *tie, name=ASSEMBLY__T5_WHEEL-CENTRE-1, adjust=NO
  *tie, name=ASSEMBLY__T5_WHEEL-CENTRE-1-NODES, adjust=NO
  *tie, name=ASSEMBLY__T6_WHEEL-CENTRE-1, adjust=NO
  *tie, name=ASSEMBLY__T6_WHEEL-CENTRE-1-NODES, adjust=NO
  *tie, name=ASSEMBLY__T7_WHEEL-CENTRE-1, adjust=NO
  *tie, name=ASSEMBLY__T7_WHEEL-CENTRE-1-NODES, adjust=NO
  *tie, name=ASSEMBLY__T8_WHEEL-CENTRE-1, adjust=NO
  *tie, name=ASSEMBLY__T8_WHEEL-CENTRE-1-NODES, adjust=NO
  *tie, name=ASSEMBLY__T9_WHEEL-CENTRE-1, adjust=NO
  *tie, name=ASSEMBLY__T9_WHEEL-CENTRE-1-NODES, adjust=NO
  *tie, name=ASSEMBLY__T10_WHEEL-CENTRE-1, adjust=NO
  *tie, name=ASSEMBLY__T10_WHEEL-CENTRE-1-NODES, adjust=NO
  *tie, name=ASSEMBLY__T11_WHEEL-CENTRE-1, adjust=NO
  *tie, name=ASSEMBLY__T11_WHEEL-CENTRE-1-NODES, adjust=NO
  *tie, name=ASSEMBLY__T12_WHEEL-CENTRE-1, adjust=NO
  *tie, name=ASSEMBLY__T12_WHEEL-CENTRE-1-NODES, adjust=NO
  *tie, name=ASSEMBLY__T13_WHEEL-CENTRE-1, adjust=NO
  *tie, name=ASSEMBLY__T13_WHEEL-CENTRE-1-NODES, adjust=NO
  *tie, name=ASSEMBLY__T14_WHEEL-CENTRE-1, adjust=NO
  *tie, name=ASSEMBLY__T14_WHEEL-CENTRE-1-NODES, adjust=NO
  *tie, name=ASSEMBLY__T15_WHEEL-CENTRE-1, adjust=NO
  *tie, name=ASSEMBLY__T15_WHEEL-CENTRE-1-NODES, adjust=NO
  *tie, name=ASSEMBLY__T16_WHEEL-CENTRE-1, adjust=NO
  *tie, name=ASSEMBLY__T16_WHEEL-CENTRE-1-NODES, adjust=NO
  *tie, name=ASSEMBLY__T17_WHEEL-CENTRE-1, adjust=NO
  *tie, name=ASSEMBLY__T17_WHEEL-CENTRE-1-NODES, adjust=NO
  *tie, name=ASSEMBLY__T18_WHEEL-CENTRE-1, adjust=NO
  *tie, name=ASSEMBLY__T18_WHEEL-CENTRE-1-NODES, adjust=NO
  *tie, name=ASSEMBLY__T19_WHEEL-CENTRE-1, adjust=NO
  *tie, name=ASSEMBLY__T19_WHEEL-CENTRE-1-NODES, adjust=NO
  *tie, name=ASSEMBLY__T20_WHEEL-CENTRE-1, adjust=NO
  *tie, name=ASSEMBLY__T20_WHEEL-CENTRE-1-NODES, adjust=NO
  *tie, name=ASSEMBLY__T21_WHEEL-CENTRE-1, adjust=NO
  *tie, name=ASSEMBLY__T21_WHEEL-CENTRE-1-NODES, adjust=NO
  *tie, name=ASSEMBLY_NUT-BOLT1, type=SURFACETOSURFACE, adjust=YES
  *tie, name=ASSEMBLY_BOLT-NUT2, type=SURFACETOSURFACE, adjust=YES
  *tie, name=ASSEMBLY_BOLT-NUT3, type=SURFACETOSURFACE, adjust=YES
  *tie, name=ASSEMBLY_BOLT-NUT4, type=SURFACETOSURFACE, adjust=YES
  *surface, type=ELEMENT, name=ASSEMBLY_CP-4-NUT1-1
  *surface, type=ELEMENT, name=ASSEMBLY_CP-8-NUT2-1
  *surface, type=ELEMENT, name=ASSEMBLY_CP-12-NUT3-1
  *surface, type=ELEMENT, name=ASSEMBLY_CP-16-NUT4-1
  *surface, type=ELEMENT, name=ASSEMBLY__PICKEDSURF46
  *surface, type=ELEMENT, name=ASSEMBLY__PICKEDSURF47
  *surface, type=ELEMENT, name=ASSEMBLY__PICKEDSURF48
  *surface, type=ELEMENT, name=ASSEMBLY__PICKEDSURF49
  *surface, type=ELEMENT, name=ASSEMBLY__PICKEDSURF50
  *surface, type=ELEMENT, name=ASSEMBLY__PICKEDSURF51
  *surface, type=ELEMENT, name=ASSEMBLY__PICKEDSURF52
  *surface, type=ELEMENT, name=ASSEMBLY__PICKEDSURF53
  *surface, type=ELEMENT, name=ASSEMBLY__PICKEDSURF1644
  *surface, type=ELEMENT, name=ASSEMBLY__PICKEDSURF1645
  *surface, type=ELEMENT, name=ASSEMBLY__PICKEDSURF1646
  *surface, type=ELEMENT, name=ASSEMBLY__PICKEDSURF1647
  *surface, type=ELEMENT, name=ASSEMBLY__T0_NUT1-1_M
  *surface, type=ELEMENT, name=ASSEMBLY__T0_NUT1-1_S
  *surface, type=NODE, name=ASSEMBLY__T0_NUT1-1_SN
  *surface, type=ELEMENT, name=ASSEMBLY__T0_NUT2-1_M
  *surface, type=ELEMENT, name=ASSEMBLY__T0_NUT2-1_S
  *surface, type=NODE, name=ASSEMBLY__T0_NUT2-1_SN
  *surface, type=ELEMENT, name=ASSEMBLY__T0_NUT3-1_M
  *surface, type=ELEMENT, name=ASSEMBLY__T0_NUT3-1_S
  *surface, type=NODE, name=ASSEMBLY__T0_NUT3-1_SN
  *surface, type=ELEMENT, name=ASSEMBLY__T0_NUT4-1_M
  *surface, type=ELEMENT, name=ASSEMBLY__T0_NUT4-1_S
  *surface, type=NODE, name=ASSEMBLY__T0_NUT4-1_SN
  *surface, type=ELEMENT, name=ASSEMBLY__T0_WHEEL-CENTRE-1_M
  *surface, type=ELEMENT, name=ASSEMBLY__T0_WHEEL-CENTRE-1_S
  *surface, type=NODE, name=ASSEMBLY__T0_WHEEL-CENTRE-1_SN
  *surface, type=ELEMENT, name=ASSEMBLY__T1_WHEEL-CENTRE-1_M
  *surface, type=ELEMENT, name=ASSEMBLY__T1_WHEEL-CENTRE-1_S
  *surface, type=NODE, name=ASSEMBLY__T1_WHEEL-CENTRE-1_SN
  *surface, type=ELEMENT, name=ASSEMBLY__T2_WHEEL-CENTRE-1_M
  *surface, type=ELEMENT, name=ASSEMBLY__T2_WHEEL-CENTRE-1_S
  *surface, type=NODE, name=ASSEMBLY__T2_WHEEL-CENTRE-1_SN
  *surface, type=ELEMENT, name=ASSEMBLY__T3_WHEEL-CENTRE-1_M
  *surface, type=ELEMENT, name=ASSEMBLY__T3_WHEEL-CENTRE-1_S
  *surface, type=NODE, name=ASSEMBLY__T3_WHEEL-CENTRE-1_SN
  *surface, type=ELEMENT, name=ASSEMBLY__T4_WHEEL-CENTRE-1_M
  *surface, type=ELEMENT, name=ASSEMBLY__T4_WHEEL-CENTRE-1_S
  *surface, type=NODE, name=ASSEMBLY__T4_WHEEL-CENTRE-1_SN
  *surface, type=ELEMENT, name=ASSEMBLY__T5_WHEEL-CENTRE-1_M
  *surface, type=ELEMENT, name=ASSEMBLY__T5_WHEEL-CENTRE-1_S
  *surface, type=NODE, name=ASSEMBLY__T5_WHEEL-CENTRE-1_SN
  *surface, type=ELEMENT, name=ASSEMBLY__T6_WHEEL-CENTRE-1_M
  *surface, type=ELEMENT, name=ASSEMBLY__T6_WHEEL-CENTRE-1_S
  *surface, type=NODE, name=ASSEMBLY__T6_WHEEL-CENTRE-1_SN
  *surface, type=ELEMENT, name=ASSEMBLY__T7_WHEEL-CENTRE-1_M

 ***NOTE: DUE TO EXCESSIVE REPORTING, THE ECHO OF THE *SURFACE OPTION IS BEING 
          SUPPRESSED.
  *tie, name=ASSEMBLY__T0_NUT1-1, adjust=NO
  *tie, name=ASSEMBLY__T0_NUT1-1-NODES, adjust=NO
  *tie, name=ASSEMBLY__T0_NUT2-1, adjust=NO
  *tie, name=ASSEMBLY__T0_NUT2-1-NODES, adjust=NO
  *tie, name=ASSEMBLY__T0_NUT3-1, adjust=NO
  *tie, name=ASSEMBLY__T0_NUT3-1-NODES, adjust=NO
  *tie, name=ASSEMBLY__T0_NUT4-1, adjust=NO
  *tie, name=ASSEMBLY__T0_NUT4-1-NODES, adjust=NO
  *tie, name=ASSEMBLY__T0_WHEEL-CENTRE-1, adjust=NO
  *tie, name=ASSEMBLY__T0_WHEEL-CENTRE-1-NODES, adjust=NO
  *tie, name=ASSEMBLY__T1_WHEEL-CENTRE-1, adjust=NO
  *tie, name=ASSEMBLY__T1_WHEEL-CENTRE-1-NODES, adjust=NO
  *tie, name=ASSEMBLY__T2_WHEEL-CENTRE-1, adjust=NO
  *tie, name=ASSEMBLY__T2_WHEEL-CENTRE-1-NODES, adjust=NO
  *tie, name=ASSEMBLY__T3_WHEEL-CENTRE-1, adjust=NO
  *tie, name=ASSEMBLY__T3_WHEEL-CENTRE-1-NODES, adjust=NO
  *tie, name=ASSEMBLY__T4_WHEEL-CENTRE-1, adjust=NO
  *tie, name=ASSEMBLY__T4_WHEEL-CENTRE-1-NODES, adjust=NO
  *tie, name=ASSEMBLY__T5_WHEEL-CENTRE-1, adjust=NO
  *tie, name=ASSEMBLY__T5_WHEEL-CENTRE-1-NODES, adjust=NO
  *tie, name=ASSEMBLY__T6_WHEEL-CENTRE-1, adjust=NO
  *tie, name=ASSEMBLY__T6_WHEEL-CENTRE-1-NODES, adjust=NO
  *tie, name=ASSEMBLY__T7_WHEEL-CENTRE-1, adjust=NO
  *tie, name=ASSEMBLY__T7_WHEEL-CENTRE-1-NODES, adjust=NO
  *tie, name=ASSEMBLY__T8_WHEEL-CENTRE-1, adjust=NO
  *tie, name=ASSEMBLY__T8_WHEEL-CENTRE-1-NODES, adjust=NO
  *tie, name=ASSEMBLY__T9_WHEEL-CENTRE-1, adjust=NO
  *tie, name=ASSEMBLY__T9_WHEEL-CENTRE-1-NODES, adjust=NO
  *tie, name=ASSEMBLY__T10_WHEEL-CENTRE-1, adjust=NO
  *tie, name=ASSEMBLY__T10_WHEEL-CENTRE-1-NODES, adjust=NO
  *tie, name=ASSEMBLY__T11_WHEEL-CENTRE-1, adjust=NO
  *tie, name=ASSEMBLY__T11_WHEEL-CENTRE-1-NODES, adjust=NO
  *tie, name=ASSEMBLY__T12_WHEEL-CENTRE-1, adjust=NO
  *tie, name=ASSEMBLY__T12_WHEEL-CENTRE-1-NODES, adjust=NO
  *tie, name=ASSEMBLY__T13_WHEEL-CENTRE-1, adjust=NO
  *tie, name=ASSEMBLY__T13_WHEEL-CENTRE-1-NODES, adjust=NO
  *tie, name=ASSEMBLY__T14_WHEEL-CENTRE-1, adjust=NO
  *tie, name=ASSEMBLY__T14_WHEEL-CENTRE-1-NODES, adjust=NO
  *tie, name=ASSEMBLY__T15_WHEEL-CENTRE-1, adjust=NO
  *tie, name=ASSEMBLY__T15_WHEEL-CENTRE-1-NODES, adjust=NO
  *tie, name=ASSEMBLY__T16_WHEEL-CENTRE-1, adjust=NO
  *tie, name=ASSEMBLY__T16_WHEEL-CENTRE-1-NODES, adjust=NO
  *tie, name=ASSEMBLY__T17_WHEEL-CENTRE-1, adjust=NO
  *tie, name=ASSEMBLY__T17_WHEEL-CENTRE-1-NODES, adjust=NO
  *tie, name=ASSEMBLY__T18_WHEEL-CENTRE-1, adjust=NO
  *tie, name=ASSEMBLY__T18_WHEEL-CENTRE-1-NODES, adjust=NO
  *tie, name=ASSEMBLY__T19_WHEEL-CENTRE-1, adjust=NO
  *tie, name=ASSEMBLY__T19_WHEEL-CENTRE-1-NODES, adjust=NO
  *tie, name=ASSEMBLY__T20_WHEEL-CENTRE-1, adjust=NO
  *tie, name=ASSEMBLY__T20_WHEEL-CENTRE-1-NODES, adjust=NO
  *tie, name=ASSEMBLY__T21_WHEEL-CENTRE-1, adjust=NO
  *tie, name=ASSEMBLY__T21_WHEEL-CENTRE-1-NODES, adjust=NO
  *tie, name=ASSEMBLY_NUT-BOLT1, type=SURFACETOSURFACE, adjust=YES
  *tie, name=ASSEMBLY_BOLT-NUT2, type=SURFACETOSURFACE, adjust=YES
  *tie, name=ASSEMBLY_BOLT-NUT3, type=SURFACETOSURFACE, adjust=YES
  *tie, name=ASSEMBLY_BOLT-NUT4, type=SURFACETOSURFACE, adjust=YES

 ***WARNING: THE CONTACT AREA OR DISTRIBUTING WEIGHT ASSOCIATED WITH THE NSET 
             ASSEMBLY__T0_NUT1-1_SN IS ZERO OR NEGATIVE. A ONE IS ASSUMED FOR 
             THE CONTACT AREA IF THIS SURFACE IS USED IN A CONTACT CALCULATION. 
             A ZERO IS ASSUMED FOR DISTRIBUTING WEIGHT FACTOR IF THE SURFACE IS 
             USED IN A *COUPLING OR *SHELL TO SOLID COUPLING DEFINITION. PLEASE 
             CHECK THAT THIS IS APPROPRIATE.

 ***WARNING: THE CONTACT AREA OR DISTRIBUTING WEIGHT ASSOCIATED WITH THE NSET 
             ASSEMBLY__T0_NUT2-1_SN IS ZERO OR NEGATIVE. A ONE IS ASSUMED FOR 
             THE CONTACT AREA IF THIS SURFACE IS USED IN A CONTACT CALCULATION. 
             A ZERO IS ASSUMED FOR DISTRIBUTING WEIGHT FACTOR IF THE SURFACE IS 
             USED IN A *COUPLING OR *SHELL TO SOLID COUPLING DEFINITION. PLEASE 
             CHECK THAT THIS IS APPROPRIATE.

 ***WARNING: THE CONTACT AREA OR DISTRIBUTING WEIGHT ASSOCIATED WITH THE NSET 
             ASSEMBLY__T0_NUT3-1_SN IS ZERO OR NEGATIVE. A ONE IS ASSUMED FOR 
             THE CONTACT AREA IF THIS SURFACE IS USED IN A CONTACT CALCULATION. 
             A ZERO IS ASSUMED FOR DISTRIBUTING WEIGHT FACTOR IF THE SURFACE IS 
             USED IN A *COUPLING OR *SHELL TO SOLID COUPLING DEFINITION. PLEASE 
             CHECK THAT THIS IS APPROPRIATE.

 ***WARNING: THE CONTACT AREA OR DISTRIBUTING WEIGHT ASSOCIATED WITH THE NSET 
             ASSEMBLY__T0_NUT4-1_SN IS ZERO OR NEGATIVE. A ONE IS ASSUMED FOR 
             THE CONTACT AREA IF THIS SURFACE IS USED IN A CONTACT CALCULATION. 
             A ZERO IS ASSUMED FOR DISTRIBUTING WEIGHT FACTOR IF THE SURFACE IS 
             USED IN A *COUPLING OR *SHELL TO SOLID COUPLING DEFINITION. PLEASE 
             CHECK THAT THIS IS APPROPRIATE.

 ***WARNING: THE CONTACT AREA OR DISTRIBUTING WEIGHT ASSOCIATED WITH THE NSET 
             ASSEMBLY__T0_WHEEL-CENTRE-1_SN IS ZERO OR NEGATIVE. A ONE IS 
             ASSUMED FOR THE CONTACT AREA IF THIS SURFACE IS USED IN A CONTACT 
             CALCULATION. A ZERO IS ASSUMED FOR DISTRIBUTING WEIGHT FACTOR IF 
             THE SURFACE IS USED IN A *COUPLING OR *SHELL TO SOLID COUPLING 
             DEFINITION. PLEASE CHECK THAT THIS IS APPROPRIATE.

 ***WARNING: THE CONTACT AREA OR DISTRIBUTING WEIGHT ASSOCIATED WITH THE NSET 
             ASSEMBLY__T1_WHEEL-CENTRE-1_SN IS ZERO OR NEGATIVE. A ONE IS 
             ASSUMED FOR THE CONTACT AREA IF THIS SURFACE IS USED IN A CONTACT 
             CALCULATION. A ZERO IS ASSUMED FOR DISTRIBUTING WEIGHT FACTOR IF 
             THE SURFACE IS USED IN A *COUPLING OR *SHELL TO SOLID COUPLING 
             DEFINITION. PLEASE CHECK THAT THIS IS APPROPRIATE.

 ***WARNING: THE CONTACT AREA OR DISTRIBUTING WEIGHT ASSOCIATED WITH THE NSET 
             ASSEMBLY__T2_WHEEL-CENTRE-1_SN IS ZERO OR NEGATIVE. A ONE IS 
             ASSUMED FOR THE CONTACT AREA IF THIS SURFACE IS USED IN A CONTACT 
             CALCULATION. A ZERO IS ASSUMED FOR DISTRIBUTING WEIGHT FACTOR IF 
             THE SURFACE IS USED IN A *COUPLING OR *SHELL TO SOLID COUPLING 
             DEFINITION. PLEASE CHECK THAT THIS IS APPROPRIATE.

 ***WARNING: THE CONTACT AREA OR DISTRIBUTING WEIGHT ASSOCIATED WITH THE NSET 
             ASSEMBLY__T3_WHEEL-CENTRE-1_SN IS ZERO OR NEGATIVE. A ONE IS 
             ASSUMED FOR THE CONTACT AREA IF THIS SURFACE IS USED IN A CONTACT 
             CALCULATION. A ZERO IS ASSUMED FOR DISTRIBUTING WEIGHT FACTOR IF 
             THE SURFACE IS USED IN A *COUPLING OR *SHELL TO SOLID COUPLING 
             DEFINITION. PLEASE CHECK THAT THIS IS APPROPRIATE.

 ***WARNING: THE CONTACT AREA OR DISTRIBUTING WEIGHT ASSOCIATED WITH THE NSET 
             ASSEMBLY__T4_WHEEL-CENTRE-1_SN IS ZERO OR NEGATIVE. A ONE IS 
             ASSUMED FOR THE CONTACT AREA IF THIS SURFACE IS USED IN A CONTACT 
             CALCULATION. A ZERO IS ASSUMED FOR DISTRIBUTING WEIGHT FACTOR IF 
             THE SURFACE IS USED IN A *COUPLING OR *SHELL TO SOLID COUPLING 
             DEFINITION. PLEASE CHECK THAT THIS IS APPROPRIATE.

 ***WARNING: THE CONTACT AREA OR DISTRIBUTING WEIGHT ASSOCIATED WITH THE NSET 
             ASSEMBLY__T5_WHEEL-CENTRE-1_SN IS ZERO OR NEGATIVE. A ONE IS 
             ASSUMED FOR THE CONTACT AREA IF THIS SURFACE IS USED IN A CONTACT 
             CALCULATION. A ZERO IS ASSUMED FOR DISTRIBUTING WEIGHT FACTOR IF 
             THE SURFACE IS USED IN A *COUPLING OR *SHELL TO SOLID COUPLING 
             DEFINITION. PLEASE CHECK THAT THIS IS APPROPRIATE.

 ***WARNING: THE CONTACT AREA OR DISTRIBUTING WEIGHT ASSOCIATED WITH THE NSET 
             ASSEMBLY__T6_WHEEL-CENTRE-1_SN IS ZERO OR NEGATIVE. A ONE IS 
             ASSUMED FOR THE CONTACT AREA IF THIS SURFACE IS USED IN A CONTACT 
             CALCULATION. A ZERO IS ASSUMED FOR DISTRIBUTING WEIGHT FACTOR IF 
             THE SURFACE IS USED IN A *COUPLING OR *SHELL TO SOLID COUPLING 
             DEFINITION. PLEASE CHECK THAT THIS IS APPROPRIATE.

 ***WARNING: THE CONTACT AREA OR DISTRIBUTING WEIGHT ASSOCIATED WITH THE NSET 
             ASSEMBLY__T7_WHEEL-CENTRE-1_SN IS ZERO OR NEGATIVE. A ONE IS 
             ASSUMED FOR THE CONTACT AREA IF THIS SURFACE IS USED IN A CONTACT 
             CALCULATION. A ZERO IS ASSUMED FOR DISTRIBUTING WEIGHT FACTOR IF 
             THE SURFACE IS USED IN A *COUPLING OR *SHELL TO SOLID COUPLING 
             DEFINITION. PLEASE CHECK THAT THIS IS APPROPRIATE.

 ***WARNING: THE CONTACT AREA OR DISTRIBUTING WEIGHT ASSOCIATED WITH THE NSET 
             ASSEMBLY__T8_WHEEL-CENTRE-1_SN IS ZERO OR NEGATIVE. A ONE IS 
             ASSUMED FOR THE CONTACT AREA IF THIS SURFACE IS USED IN A CONTACT 
             CALCULATION. A ZERO IS ASSUMED FOR DISTRIBUTING WEIGHT FACTOR IF 
             THE SURFACE IS USED IN A *COUPLING OR *SHELL TO SOLID COUPLING 
             DEFINITION. PLEASE CHECK THAT THIS IS APPROPRIATE.

 ***WARNING: THE CONTACT AREA OR DISTRIBUTING WEIGHT ASSOCIATED WITH THE NSET 
             ASSEMBLY__T9_WHEEL-CENTRE-1_SN IS ZERO OR NEGATIVE. A ONE IS 
             ASSUMED FOR THE CONTACT AREA IF THIS SURFACE IS USED IN A CONTACT 
             CALCULATION. A ZERO IS ASSUMED FOR DISTRIBUTING WEIGHT FACTOR IF 
             THE SURFACE IS USED IN A *COUPLING OR *SHELL TO SOLID COUPLING 
             DEFINITION. PLEASE CHECK THAT THIS IS APPROPRIATE.

 ***WARNING: THE CONTACT AREA OR DISTRIBUTING WEIGHT ASSOCIATED WITH THE NSET 
             ASSEMBLY__T10_WHEEL-CENTRE-1_SN IS ZERO OR NEGATIVE. A ONE IS 
             ASSUMED FOR THE CONTACT AREA IF THIS SURFACE IS USED IN A CONTACT 
             CALCULATION. A ZERO IS ASSUMED FOR DISTRIBUTING WEIGHT FACTOR IF 
             THE SURFACE IS USED IN A *COUPLING OR *SHELL TO SOLID COUPLING 
             DEFINITION. PLEASE CHECK THAT THIS IS APPROPRIATE.

 ***WARNING: THE CONTACT AREA OR DISTRIBUTING WEIGHT ASSOCIATED WITH THE NSET 
             ASSEMBLY__T11_WHEEL-CENTRE-1_SN IS ZERO OR NEGATIVE. A ONE IS 
             ASSUMED FOR THE CONTACT AREA IF THIS SURFACE IS USED IN A CONTACT 
             CALCULATION. A ZERO IS ASSUMED FOR DISTRIBUTING WEIGHT FACTOR IF 
             THE SURFACE IS USED IN A *COUPLING OR *SHELL TO SOLID COUPLING 
             DEFINITION. PLEASE CHECK THAT THIS IS APPROPRIATE.

 ***WARNING: THE CONTACT AREA OR DISTRIBUTING WEIGHT ASSOCIATED WITH THE NSET 
             ASSEMBLY__T12_WHEEL-CENTRE-1_SN IS ZERO OR NEGATIVE. A ONE IS 
             ASSUMED FOR THE CONTACT AREA IF THIS SURFACE IS USED IN A CONTACT 
             CALCULATION. A ZERO IS ASSUMED FOR DISTRIBUTING WEIGHT FACTOR IF 
             THE SURFACE IS USED IN A *COUPLING OR *SHELL TO SOLID COUPLING 
             DEFINITION. PLEASE CHECK THAT THIS IS APPROPRIATE.

 ***WARNING: THE CONTACT AREA OR DISTRIBUTING WEIGHT ASSOCIATED WITH THE NSET 
             ASSEMBLY__T13_WHEEL-CENTRE-1_SN IS ZERO OR NEGATIVE. A ONE IS 
             ASSUMED FOR THE CONTACT AREA IF THIS SURFACE IS USED IN A CONTACT 
             CALCULATION. A ZERO IS ASSUMED FOR DISTRIBUTING WEIGHT FACTOR IF 
             THE SURFACE IS USED IN A *COUPLING OR *SHELL TO SOLID COUPLING 
             DEFINITION. PLEASE CHECK THAT THIS IS APPROPRIATE.

 ***WARNING: THE CONTACT AREA OR DISTRIBUTING WEIGHT ASSOCIATED WITH THE NSET 
             ASSEMBLY__T14_WHEEL-CENTRE-1_SN IS ZERO OR NEGATIVE. A ONE IS 
             ASSUMED FOR THE CONTACT AREA IF THIS SURFACE IS USED IN A CONTACT 
             CALCULATION. A ZERO IS ASSUMED FOR DISTRIBUTING WEIGHT FACTOR IF 
             THE SURFACE IS USED IN A *COUPLING OR *SHELL TO SOLID COUPLING 
             DEFINITION. PLEASE CHECK THAT THIS IS APPROPRIATE.

 ***WARNING: THE CONTACT AREA OR DISTRIBUTING WEIGHT ASSOCIATED WITH THE NSET 
             ASSEMBLY__T15_WHEEL-CENTRE-1_SN IS ZERO OR NEGATIVE. A ONE IS 
             ASSUMED FOR THE CONTACT AREA IF THIS SURFACE IS USED IN A CONTACT 
             CALCULATION. A ZERO IS ASSUMED FOR DISTRIBUTING WEIGHT FACTOR IF 
             THE SURFACE IS USED IN A *COUPLING OR *SHELL TO SOLID COUPLING 
             DEFINITION. PLEASE CHECK THAT THIS IS APPROPRIATE.

 ***WARNING: THE CONTACT AREA OR DISTRIBUTING WEIGHT ASSOCIATED WITH THE NSET 
             ASSEMBLY__T16_WHEEL-CENTRE-1_SN IS ZERO OR NEGATIVE. A ONE IS 
             ASSUMED FOR THE CONTACT AREA IF THIS SURFACE IS USED IN A CONTACT 
             CALCULATION. A ZERO IS ASSUMED FOR DISTRIBUTING WEIGHT FACTOR IF 
             THE SURFACE IS USED IN A *COUPLING OR *SHELL TO SOLID COUPLING 
             DEFINITION. PLEASE CHECK THAT THIS IS APPROPRIATE.

 ***WARNING: THE CONTACT AREA OR DISTRIBUTING WEIGHT ASSOCIATED WITH THE NSET 
             ASSEMBLY__T17_WHEEL-CENTRE-1_SN IS ZERO OR NEGATIVE. A ONE IS 
             ASSUMED FOR THE CONTACT AREA IF THIS SURFACE IS USED IN A CONTACT 
             CALCULATION. A ZERO IS ASSUMED FOR DISTRIBUTING WEIGHT FACTOR IF 
             THE SURFACE IS USED IN A *COUPLING OR *SHELL TO SOLID COUPLING 
             DEFINITION. PLEASE CHECK THAT THIS IS APPROPRIATE.

 ***WARNING: THE CONTACT AREA OR DISTRIBUTING WEIGHT ASSOCIATED WITH THE NSET 
             ASSEMBLY__T18_WHEEL-CENTRE-1_SN IS ZERO OR NEGATIVE. A ONE IS 
             ASSUMED FOR THE CONTACT AREA IF THIS SURFACE IS USED IN A CONTACT 
             CALCULATION. A ZERO IS ASSUMED FOR DISTRIBUTING WEIGHT FACTOR IF 
             THE SURFACE IS USED IN A *COUPLING OR *SHELL TO SOLID COUPLING 
             DEFINITION. PLEASE CHECK THAT THIS IS APPROPRIATE.

 ***WARNING: THE CONTACT AREA OR DISTRIBUTING WEIGHT ASSOCIATED WITH THE NSET 
             ASSEMBLY__T19_WHEEL-CENTRE-1_SN IS ZERO OR NEGATIVE. A ONE IS 
             ASSUMED FOR THE CONTACT AREA IF THIS SURFACE IS USED IN A CONTACT 
             CALCULATION. A ZERO IS ASSUMED FOR DISTRIBUTING WEIGHT FACTOR IF 
             THE SURFACE IS USED IN A *COUPLING OR *SHELL TO SOLID COUPLING 
             DEFINITION. PLEASE CHECK THAT THIS IS APPROPRIATE.

 ***WARNING: THE CONTACT AREA OR DISTRIBUTING WEIGHT ASSOCIATED WITH THE NSET 
             ASSEMBLY__T20_WHEEL-CENTRE-1_SN IS ZERO OR NEGATIVE. A ONE IS 
             ASSUMED FOR THE CONTACT AREA IF THIS SURFACE IS USED IN A CONTACT 
             CALCULATION. A ZERO IS ASSUMED FOR DISTRIBUTING WEIGHT FACTOR IF 
             THE SURFACE IS USED IN A *COUPLING OR *SHELL TO SOLID COUPLING 
             DEFINITION. PLEASE CHECK THAT THIS IS APPROPRIATE.

 ***WARNING: THE CONTACT AREA OR DISTRIBUTING WEIGHT ASSOCIATED WITH THE NSET 
             ASSEMBLY__T21_WHEEL-CENTRE-1_SN IS ZERO OR NEGATIVE. A ONE IS 
             ASSUMED FOR THE CONTACT AREA IF THIS SURFACE IS USED IN A CONTACT 
             CALCULATION. A ZERO IS ASSUMED FOR DISTRIBUTING WEIGHT FACTOR IF 
             THE SURFACE IS USED IN A *COUPLING OR *SHELL TO SOLID COUPLING 
             DEFINITION. PLEASE CHECK THAT THIS IS APPROPRIATE.
  *surfaceinteraction, name=GEN-CONTACT
  *contact
  *contactinclusions, allexterior
  *contactpropertyassignment
  *surfacepropertyassignment, property=GEOMETRICCORRECTION
  *tie, name=ASSEMBLY__T0_NUT1-1, adjust=NO
  *tie, name=ASSEMBLY__T0_NUT1-1-NODES, adjust=NO
  *tie, name=ASSEMBLY__T0_NUT2-1, adjust=NO
  *tie, name=ASSEMBLY__T0_NUT2-1-NODES, adjust=NO
  *tie, name=ASSEMBLY__T0_NUT3-1, adjust=NO
  *tie, name=ASSEMBLY__T0_NUT3-1-NODES, adjust=NO
  *tie, name=ASSEMBLY__T0_NUT4-1, adjust=NO
  *tie, name=ASSEMBLY__T0_NUT4-1-NODES, adjust=NO
  *tie, name=ASSEMBLY__T0_WHEEL-CENTRE-1, adjust=NO
  *tie, name=ASSEMBLY__T0_WHEEL-CENTRE-1-NODES, adjust=NO
  *tie, name=ASSEMBLY__T1_WHEEL-CENTRE-1, adjust=NO
  *tie, name=ASSEMBLY__T1_WHEEL-CENTRE-1-NODES, adjust=NO
  *tie, name=ASSEMBLY__T2_WHEEL-CENTRE-1, adjust=NO
  *tie, name=ASSEMBLY__T2_WHEEL-CENTRE-1-NODES, adjust=NO
  *tie, name=ASSEMBLY__T3_WHEEL-CENTRE-1, adjust=NO
  *tie, name=ASSEMBLY__T3_WHEEL-CENTRE-1-NODES, adjust=NO
  *tie, name=ASSEMBLY__T4_WHEEL-CENTRE-1, adjust=NO
  *tie, name=ASSEMBLY__T4_WHEEL-CENTRE-1-NODES, adjust=NO
  *tie, name=ASSEMBLY__T5_WHEEL-CENTRE-1, adjust=NO
  *tie, name=ASSEMBLY__T5_WHEEL-CENTRE-1-NODES, adjust=NO
  *tie, name=ASSEMBLY__T6_WHEEL-CENTRE-1, adjust=NO
  *tie, name=ASSEMBLY__T6_WHEEL-CENTRE-1-NODES, adjust=NO
  *tie, name=ASSEMBLY__T7_WHEEL-CENTRE-1, adjust=NO
  *tie, name=ASSEMBLY__T7_WHEEL-CENTRE-1-NODES, adjust=NO
  *tie, name=ASSEMBLY__T8_WHEEL-CENTRE-1, adjust=NO
  *tie, name=ASSEMBLY__T8_WHEEL-CENTRE-1-NODES, adjust=NO
  *tie, name=ASSEMBLY__T9_WHEEL-CENTRE-1, adjust=NO
  *tie, name=ASSEMBLY__T9_WHEEL-CENTRE-1-NODES, adjust=NO
  *tie, name=ASSEMBLY__T10_WHEEL-CENTRE-1, adjust=NO
  *tie, name=ASSEMBLY__T10_WHEEL-CENTRE-1-NODES, adjust=NO
  *tie, name=ASSEMBLY__T11_WHEEL-CENTRE-1, adjust=NO
  *tie, name=ASSEMBLY__T11_WHEEL-CENTRE-1-NODES, adjust=NO
  *tie, name=ASSEMBLY__T12_WHEEL-CENTRE-1, adjust=NO
  *tie, name=ASSEMBLY__T12_WHEEL-CENTRE-1-NODES, adjust=NO
  *tie, name=ASSEMBLY__T13_WHEEL-CENTRE-1, adjust=NO
  *tie, name=ASSEMBLY__T13_WHEEL-CENTRE-1-NODES, adjust=NO
  *tie, name=ASSEMBLY__T14_WHEEL-CENTRE-1, adjust=NO
  *tie, name=ASSEMBLY__T14_WHEEL-CENTRE-1-NODES, adjust=NO
  *tie, name=ASSEMBLY__T15_WHEEL-CENTRE-1, adjust=NO
  *tie, name=ASSEMBLY__T15_WHEEL-CENTRE-1-NODES, adjust=NO
  *tie, name=ASSEMBLY__T16_WHEEL-CENTRE-1, adjust=NO
  *tie, name=ASSEMBLY__T16_WHEEL-CENTRE-1-NODES, adjust=NO
  *tie, name=ASSEMBLY__T17_WHEEL-CENTRE-1, adjust=NO
  *tie, name=ASSEMBLY__T17_WHEEL-CENTRE-1-NODES, adjust=NO
  *tie, name=ASSEMBLY__T18_WHEEL-CENTRE-1, adjust=NO
  *tie, name=ASSEMBLY__T18_WHEEL-CENTRE-1-NODES, adjust=NO
  *tie, name=ASSEMBLY__T19_WHEEL-CENTRE-1, adjust=NO
  *tie, name=ASSEMBLY__T19_WHEEL-CENTRE-1-NODES, adjust=NO
  *tie, name=ASSEMBLY__T20_WHEEL-CENTRE-1, adjust=NO
  *tie, name=ASSEMBLY__T20_WHEEL-CENTRE-1-NODES, adjust=NO
  *tie, name=ASSEMBLY__T21_WHEEL-CENTRE-1, adjust=NO
  *tie, name=ASSEMBLY__T21_WHEEL-CENTRE-1-NODES, adjust=NO
  *tie, name=ASSEMBLY_NUT-BOLT1, type=SURFACETOSURFACE, adjust=YES
  *tie, name=ASSEMBLY_BOLT-NUT2, type=SURFACETOSURFACE, adjust=YES
  *tie, name=ASSEMBLY_BOLT-NUT3, type=SURFACETOSURFACE, adjust=YES
  *tie, name=ASSEMBLY_BOLT-NUT4, type=SURFACETOSURFACE, adjust=YES
  *tie, name=ASSEMBLY__T0_NUT1-1, adjust=NO
  *tie, name=ASSEMBLY__T0_NUT1-1-NODES, adjust=NO
  *tie, name=ASSEMBLY__T0_NUT2-1, adjust=NO
  *tie, name=ASSEMBLY__T0_NUT2-1-NODES, adjust=NO
  *tie, name=ASSEMBLY__T0_NUT3-1, adjust=NO
  *tie, name=ASSEMBLY__T0_NUT3-1-NODES, adjust=NO
  *tie, name=ASSEMBLY__T0_NUT4-1, adjust=NO
  *tie, name=ASSEMBLY__T0_NUT4-1-NODES, adjust=NO
  *tie, name=ASSEMBLY__T0_WHEEL-CENTRE-1, adjust=NO
  *tie, name=ASSEMBLY__T0_WHEEL-CENTRE-1-NODES, adjust=NO
  *tie, name=ASSEMBLY__T1_WHEEL-CENTRE-1, adjust=NO
  *tie, name=ASSEMBLY__T1_WHEEL-CENTRE-1-NODES, adjust=NO
  *tie, name=ASSEMBLY__T2_WHEEL-CENTRE-1, adjust=NO
  *tie, name=ASSEMBLY__T2_WHEEL-CENTRE-1-NODES, adjust=NO
  *tie, name=ASSEMBLY__T3_WHEEL-CENTRE-1, adjust=NO
  *tie, name=ASSEMBLY__T3_WHEEL-CENTRE-1-NODES, adjust=NO
  *tie, name=ASSEMBLY__T4_WHEEL-CENTRE-1, adjust=NO
  *tie, name=ASSEMBLY__T4_WHEEL-CENTRE-1-NODES, adjust=NO
  *tie, name=ASSEMBLY__T5_WHEEL-CENTRE-1, adjust=NO
  *tie, name=ASSEMBLY__T5_WHEEL-CENTRE-1-NODES, adjust=NO
  *tie, name=ASSEMBLY__T6_WHEEL-CENTRE-1, adjust=NO
  *tie, name=ASSEMBLY__T6_WHEEL-CENTRE-1-NODES, adjust=NO
  *tie, name=ASSEMBLY__T7_WHEEL-CENTRE-1, adjust=NO
  *tie, name=ASSEMBLY__T7_WHEEL-CENTRE-1-NODES, adjust=NO
  *tie, name=ASSEMBLY__T8_WHEEL-CENTRE-1, adjust=NO
  *tie, name=ASSEMBLY__T8_WHEEL-CENTRE-1-NODES, adjust=NO
  *tie, name=ASSEMBLY__T9_WHEEL-CENTRE-1, adjust=NO
  *tie, name=ASSEMBLY__T9_WHEEL-CENTRE-1-NODES, adjust=NO
  *tie, name=ASSEMBLY__T10_WHEEL-CENTRE-1, adjust=NO
  *tie, name=ASSEMBLY__T10_WHEEL-CENTRE-1-NODES, adjust=NO
  *tie, name=ASSEMBLY__T11_WHEEL-CENTRE-1, adjust=NO
  *tie, name=ASSEMBLY__T11_WHEEL-CENTRE-1-NODES, adjust=NO
  *tie, name=ASSEMBLY__T12_WHEEL-CENTRE-1, adjust=NO
  *tie, name=ASSEMBLY__T12_WHEEL-CENTRE-1-NODES, adjust=NO
  *tie, name=ASSEMBLY__T13_WHEEL-CENTRE-1, adjust=NO
  *tie, name=ASSEMBLY__T13_WHEEL-CENTRE-1-NODES, adjust=NO
  *tie, name=ASSEMBLY__T14_WHEEL-CENTRE-1, adjust=NO
  *tie, name=ASSEMBLY__T14_WHEEL-CENTRE-1-NODES, adjust=NO
  *tie, name=ASSEMBLY__T15_WHEEL-CENTRE-1, adjust=NO
  *tie, name=ASSEMBLY__T15_WHEEL-CENTRE-1-NODES, adjust=NO
  *tie, name=ASSEMBLY__T16_WHEEL-CENTRE-1, adjust=NO
  *tie, name=ASSEMBLY__T16_WHEEL-CENTRE-1-NODES, adjust=NO
  *tie, name=ASSEMBLY__T17_WHEEL-CENTRE-1, adjust=NO
  *tie, name=ASSEMBLY__T17_WHEEL-CENTRE-1-NODES, adjust=NO
  *tie, name=ASSEMBLY__T18_WHEEL-CENTRE-1, adjust=NO
  *tie, name=ASSEMBLY__T18_WHEEL-CENTRE-1-NODES, adjust=NO
  *tie, name=ASSEMBLY__T19_WHEEL-CENTRE-1, adjust=NO
  *tie, name=ASSEMBLY__T19_WHEEL-CENTRE-1-NODES, adjust=NO
  *tie, name=ASSEMBLY__T20_WHEEL-CENTRE-1, adjust=NO
  *tie, name=ASSEMBLY__T20_WHEEL-CENTRE-1-NODES, adjust=NO
  *tie, name=ASSEMBLY__T21_WHEEL-CENTRE-1, adjust=NO
  *tie, name=ASSEMBLY__T21_WHEEL-CENTRE-1-NODES, adjust=NO
  *tie, name=ASSEMBLY_NUT-BOLT1, type=SURFACETOSURFACE, adjust=YES
  *tie, name=ASSEMBLY_BOLT-NUT2, type=SURFACETOSURFACE, adjust=YES
  *tie, name=ASSEMBLY_BOLT-NUT3, type=SURFACETOSURFACE, adjust=YES
  *tie, name=ASSEMBLY_BOLT-NUT4, type=SURFACETOSURFACE, adjust=YES
  *solidsection, elset=ASSEMBLY_BOLT1-1__PICKEDSET15, material=STEEL
  *solidsection, elset=ASSEMBLY_BOLT2-1__PICKEDSET8, material=STEEL
  *solidsection, elset=ASSEMBLY_BOLT3-1__PICKEDSET9, material=STEEL
  *solidsection, elset=ASSEMBLY_BOLT4-1__PICKEDSET12, material=STEEL
  *solidsection, elset=ASSEMBLY_BRAKE-1__PICKEDSET4, material=STEEL
  *solidsection, elset=ASSEMBLY_HUB-1__PICKEDSET7, material=STEEL
  *solidsection, elset=ASSEMBLY_NUT1-1__PICKEDSET8, material=STEEL
  *solidsection, elset=ASSEMBLY_NUT2-1__PICKEDSET6, material=STEEL
[...]
    WHEEL-CENTRE-1.177277       0.00303459          4.92873          171.254       NO       
    WHEEL-CENTRE-1.177533       0.00218139          6.05952          157.675       NO       
    WHEEL-CENTRE-1.177541        0.0368302          1.74236          90.7525      YES       
    WHEEL-CENTRE-1.177691         0.105493          8.26153          94.2626       NO       
    WHEEL-CENTRE-1.177883        0.0831876           6.0397          111.606       NO       
    WHEEL-CENTRE-1.178681        0.0373664          1.65823              90.       NO       
    WHEEL-CENTRE-1.179514        0.0242593          6.45758          137.022       NO       
    WHEEL-CENTRE-1.180505        0.0371929           1.6609              90.      YES       
    WHEEL-CENTRE-1.180509      0.000688436          4.69444          167.785      YES       
    WHEEL-CENTRE-1.180965        0.0373684          1.68573          90.9152       NO       
    WHEEL-CENTRE-1.181692      0.000108372          4.63108          173.877       NO       
    WHEEL-CENTRE-1.182144        0.0329155           1.4912              90.      YES       
    WHEEL-CENTRE-1.182145      0.000665706          6.89799          167.734       NO       
    WHEEL-CENTRE-1.182146      0.000629833          6.05213          166.999       NO       
    WHEEL-CENTRE-1.184148        0.0275268          1.67622          118.379       NO       
    WHEEL-CENTRE-1.184149         0.037744           1.6666          91.0142       NO       
    WHEEL-CENTRE-1.184277        0.0383065           2.1382          95.9244       NO       
    WHEEL-CENTRE-1.184282      0.000207687          4.29259           171.53       NO       
    WHEEL-CENTRE-1.185213        0.0426477          2.50334          93.1269       NO       
    WHEEL-CENTRE-1.185290        0.0467345           2.5314          92.8501       NO       
    WHEEL-CENTRE-1.185291      0.000296466          6.70231          166.902       NO       
    WHEEL-CENTRE-1.185557      0.000211904          4.46491          171.555       NO       
    WHEEL-CENTRE-1.188963      0.000514889          5.73283          168.006       NO       
    WHEEL-CENTRE-1.189550      0.000268356          3.87716          167.781       NO       
    WHEEL-CENTRE-1.189555        0.0311308          1.63585          90.7022       NO       
    WHEEL-CENTRE-1.190671        0.0210002          1.70841          95.2534       NO       
    WHEEL-CENTRE-1.191515         0.055878          2.42174          98.3847       NO       
    WHEEL-CENTRE-1.196552         0.148833          8.93914          134.094       NO       
    WHEEL-CENTRE-1.197224      0.000405035          3.63315          168.295       NO       
    WHEEL-CENTRE-1.197621      0.000130344          6.08433          169.845      YES       
    WHEEL-CENTRE-1.197898         0.144609          8.18566          119.782       NO       
    WHEEL-CENTRE-1.202524        0.0274068          2.19787          97.4461       NO       
    WHEEL-CENTRE-1.203244      0.000359193          4.59272          165.728       NO       
    WHEEL-CENTRE-1.205759        0.0371728          1.71419          90.8292       NO       
    WHEEL-CENTRE-1.208252        0.0275958          1.67086          116.529       NO       
    WHEEL-CENTRE-1.208803          0.03509          2.01988          103.522      YES       
    WHEEL-CENTRE-1.210182        0.0378383          2.03468              90.      YES       
    WHEEL-CENTRE-1.210183      0.000149274          4.25835          168.318      YES       
    WHEEL-CENTRE-1.210188        0.0792132           4.6595           170.79       NO       
    WHEEL-CENTRE-1.210988        0.0488545          2.47022          91.2065       NO       
    WHEEL-CENTRE-1.210989      0.000101046          3.31366          171.093       NO       
    WHEEL-CENTRE-1.211037        0.0334571          2.14027          100.112       NO       
    WHEEL-CENTRE-1.212225        0.0389573          1.93904           98.743       NO       
    WHEEL-CENTRE-1.217755        0.0969351          5.15964           170.77      YES       
    WHEEL-CENTRE-1.218792        0.0045697          14.2157          159.567       NO       
    WHEEL-CENTRE-1.219350        0.0914034          6.13922           142.34       NO       
    WHEEL-CENTRE-1.219403        0.0144339          10.7943           163.64       NO       
    WHEEL-CENTRE-1.219404        0.0163145          10.6409          160.902       NO       
    WHEEL-CENTRE-1.219868        0.0884906          5.42651          148.859       NO       
    WHEEL-CENTRE-1.220976        0.0714353          3.60131           169.42      YES       
    WHEEL-CENTRE-1.221157       0.00106375          6.24419          169.169       NO       
    WHEEL-CENTRE-1.221158      0.000604382          8.06738          165.148       NO       
    WHEEL-CENTRE-1.221161       0.00613626          5.62962          171.207       NO       
    WHEEL-CENTRE-1.222453        0.0344437          2.12819          94.6819       NO       
    WHEEL-CENTRE-1.222730        0.0113557          15.3683          147.176       NO       
    WHEEL-CENTRE-1.225047         0.036078          3.67029          99.9194       NO       
    WHEEL-CENTRE-1.226795        0.0387023          1.79302          94.1847       NO       
    WHEEL-CENTRE-1.226796       0.00025264          6.17644          163.102      YES       
    WHEEL-CENTRE-1.227239        0.0377137          1.72336              90.      YES       
    WHEEL-CENTRE-1.228234        0.0458789          2.82589          103.678       NO       
    WHEEL-CENTRE-1.228236        0.0239498          1.76228          133.479       NO       
    WHEEL-CENTRE-1.228529         0.016144          11.5982          139.104       NO       
    WHEEL-CENTRE-1.228669        0.0320924          2.46262          106.553       NO       
    WHEEL-CENTRE-1.228782        0.0162847          3.40327          130.108       NO       
    WHEEL-CENTRE-1.228863       0.00421444           8.5606          160.644       NO       
    WHEEL-CENTRE-1.228879        0.0462763          2.53771          105.029       NO       
    WHEEL-CENTRE-1.228880        0.0382285           1.6881              90.      YES       
    WHEEL-CENTRE-1.229480        0.0313412          7.94622          138.435       NO       
    WHEEL-CENTRE-1.229631       0.00900142          18.6788          149.944       NO       
    WHEEL-CENTRE-1.230439      0.000239571          5.45733            170.6      YES       
    WHEEL-CENTRE-1.230444        0.0378725           2.2559          93.2899       NO       
    WHEEL-CENTRE-1.230448        0.0378725          1.74034          92.4237       NO       
    WHEEL-CENTRE-1.231085        0.0337563          1.95257          109.042      YES       
    WHEEL-CENTRE-1.231158        0.0948457          6.44085          141.389       NO       
    WHEEL-CENTRE-1.231251        0.0337166          2.17679          105.498       NO       
    WHEEL-CENTRE-1.231436        0.0912478          5.89092          144.408       NO       
    WHEEL-CENTRE-1.231453       0.00504363          5.73853          168.013       NO       
    WHEEL-CENTRE-1.231456       0.00133776          7.80629          170.436      YES       
    WHEEL-CENTRE-1.231790      0.000501497          2.92378          170.846      YES       
    WHEEL-CENTRE-1.233030        0.0311281          11.5726           160.93       NO       
    WHEEL-CENTRE-1.233244       0.00132498          7.65102            161.3       NO       
    WHEEL-CENTRE-1.233511        0.0127658          7.64477          155.331       NO       
    WHEEL-CENTRE-1.235771        0.0407971          2.49379          91.1184       NO       
    WHEEL-CENTRE-1.236253        0.0275311          1.59165              90.       NO       
    WHEEL-CENTRE-1.236325        0.0461479          2.94124          93.8241       NO       
    WHEEL-CENTRE-1.236327        0.0035952           8.8846          160.938      YES       
    WHEEL-CENTRE-1.236499        0.0427429          2.64864            93.32       NO       
    WHEEL-CENTRE-1.236693        0.0730724          9.36426          159.662       NO       
    WHEEL-CENTRE-1.237240      0.000161313          3.17034          172.203       NO       
    WHEEL-CENTRE-1.237241        0.0368346          1.60967              90.      YES       
    WHEEL-CENTRE-1.238128        0.0541458          6.78592          165.747      YES       
    WHEEL-CENTRE-1.240175       0.00250973          5.37393          167.505       NO       
    WHEEL-CENTRE-1.240203      0.000278292          6.36403          167.181      YES       
    WHEEL-CENTRE-1.240210        0.0258671           2.1002              90.      YES       
    WHEEL-CENTRE-1.241556       0.00427036          20.0096          159.894       NO       
    WHEEL-CENTRE-1.241725         0.168267          9.39491          155.043       NO       
    WHEEL-CENTRE-1.242915        0.0379976          1.76174              90.      YES       
    WHEEL-CENTRE-1.243383      0.000473968          4.87579          168.674       NO       
    WHEEL-CENTRE-1.243776        0.0379706          1.65155          91.1114       NO       
    WHEEL-CENTRE-1.244100        0.0196346          6.35457          164.864       NO       
    WHEEL-CENTRE-1.244345        0.0958081          4.88494          163.322       NO       
    WHEEL-CENTRE-1.245504      0.000205075          3.16163          171.299       NO       
    WHEEL-CENTRE-1.245505          0.03812          1.98508          91.9145       NO       
    WHEEL-CENTRE-1.245506      0.000138493          4.33337          170.703       NO       
    WHEEL-CENTRE-1.245834          0.06988          8.51582          161.556       NO       
    WHEEL-CENTRE-1.246750        0.0356045          2.23476          103.452       NO       
    WHEEL-CENTRE-1.247119        0.0380578          2.23514          92.7919       NO       
    WHEEL-CENTRE-1.247120      0.000460564          8.75848          162.869      YES       
    WHEEL-CENTRE-1.247428         0.160419          8.02844          157.999      YES       
    WHEEL-CENTRE-1.247441        0.0332902          2.43785          100.275       NO       
    WHEEL-CENTRE-1.247496        0.0383926          1.82452              90.       NO       
    WHEEL-CENTRE-1.247497        0.0392367          1.73232          90.9914       NO       
    WHEEL-CENTRE-1.247499        0.0383926          1.68411          91.0222       NO       
    WHEEL-CENTRE-1.247551        0.0801236           6.7692          159.134       NO       
    WHEEL-CENTRE-1.247554        0.0061507          8.34248          146.078      YES       
    WHEEL-CENTRE-1.247555        0.0355124          2.18547          95.1336       NO       
    WHEEL-CENTRE-1.247759        0.0004954          5.55522          167.838      YES       
    WHEEL-CENTRE-1.247764      0.000923328          4.84209          169.644      YES       
    WHEEL-CENTRE-1.247983      0.000254572          3.10222          171.851       NO       
    WHEEL-CENTRE-1.248684          0.03024          8.10641          136.916       NO       
    WHEEL-CENTRE-1.248715      0.000443496          4.93403          167.663      YES       
    WHEEL-CENTRE-1.249000        0.0386141          1.76857              90.       NO       
    WHEEL-CENTRE-1.249006        0.0346606          7.92639          135.942       NO       
    WHEEL-CENTRE-1.249418        0.0521708          2.24944          96.0733       NO       
    WHEEL-CENTRE-1.249588        0.0020074          3.50169           168.61      YES       
    WHEEL-CENTRE-1.249590       0.00628992          6.28561          154.962       NO       
    WHEEL-CENTRE-1.249591        0.0158073          5.93507          157.708       NO       
    WHEEL-CENTRE-1.249915        0.0427445          1.96758              90.       NO       
    WHEEL-CENTRE-1.250293      0.000458043          3.25301          171.904       NO       
    WHEEL-CENTRE-1.251682       0.00475341          5.20636          171.855       NO       
    WHEEL-CENTRE-1.251707       0.00612968          16.9279          155.762       NO       
    WHEEL-CENTRE-1.251725      0.000381591          3.64245          169.477      YES       
    WHEEL-CENTRE-1.251901          0.03806          1.81319              90.      YES       
    WHEEL-CENTRE-1.251916        0.0303922          1.99046          109.202       NO       
    WHEEL-CENTRE-1.251918         0.041052          2.56762          99.7858       NO       
    WHEEL-CENTRE-1.252017      0.000647572          5.86536          165.509      YES       
    WHEEL-CENTRE-1.252087        0.0286653          1.39042              90.       NO       
    WHEEL-CENTRE-1.252301        0.0151166          16.4906          151.103       NO       
    WHEEL-CENTRE-1.252469        0.0254864          1.69486          90.1461      YES       
    WHEEL-CENTRE-1.252475        0.0339693          1.90581              90.      YES       
    WHEEL-CENTRE-1.252579       0.00873825          16.5523          154.538       NO       
    WHEEL-CENTRE-1.252582      0.000317795          5.82328           166.29       NO       
    WHEEL-CENTRE-1.252589        0.0316509          2.47612              90.      YES       
    WHEEL-CENTRE-1.252801        0.0355957          2.49947          105.748       NO       
    WHEEL-CENTRE-1.252969       0.00052713           5.1212           168.09       NO       
    WHEEL-CENTRE-1.252972      0.000901121          4.69124          169.493       NO       
    WHEEL-CENTRE-1.253273       0.00905607          19.6558          150.014       NO       
    WHEEL-CENTRE-1.253277        0.0135629          16.6143          146.426       NO       
    WHEEL-CENTRE-1.253585        0.0111278          21.4502          147.344       NO       
    WHEEL-CENTRE-1.253995        0.0322628          5.70092          136.491       NO       
    WHEEL-CENTRE-1.253999        0.0934716          7.10041          135.262       NO       
    WHEEL-CENTRE-1.254260      0.000147711          4.47329          171.983      YES       
    WHEEL-CENTRE-1.254262      0.000191788          3.92447          169.797      YES       
    WHEEL-CENTRE-1.254264        0.0517749          2.26122          96.2498       NO       
    WHEEL-CENTRE-1.254765        0.0103579          16.6035           156.23       NO       
    WHEEL-CENTRE-1.255037       0.00811196          5.11956          158.322       NO       
    WHEEL-CENTRE-1.255237        0.0372831          1.77039          90.7363       NO       
    WHEEL-CENTRE-1.255240        0.0372831          1.68114              90.       NO       
    WHEEL-CENTRE-1.255308         0.135306          8.03424          167.091      YES       
    WHEEL-CENTRE-1.255800        0.0368231          1.68237              90.      YES       
    WHEEL-CENTRE-1.255920        0.0450184          2.32586          92.5923       NO       
    WHEEL-CENTRE-1.255921       0.00992149          3.74059          166.608       NO       
    WHEEL-CENTRE-1.255923        0.0382072          1.75093          93.1695       NO       
  



                            P R O B L E M   S I Z E


          NUMBER OF ELEMENTS IS                                848002
          NUMBER OF ELEMENTS DEFINED BY THE USER AND *TIE      353921
          NUMBER OF INTERNAL ELEMENTS GENERATED FOR CONTACT    494081
          NUMBER OF NODES IS                                  1734955
          NUMBER OF NODES DEFINED BY THE USER                  746793
          NUMBER OF INTERNAL NODES GENERATED BY THE PROGRAM    988162
          TOTAL NUMBER OF VARIABLES IN THE MODEL              3722614
          (DEGREES OF FREEDOM PLUS MAX NO. OF ANY LAGRANGE MULTIPLIER
           VARIABLES. INCLUDE *PRINT,SOLVE=YES TO GET THE ACTUAL NUMBER.)



                              END OF USER INPUT PROCESSING



     JOB TIME SUMMARY
       USER TIME (SEC)      =   226.70    
       SYSTEM TIME (SEC)    =   18.800    
       TOTAL CPU TIME (SEC) =   245.50    
       WALLCLOCK TIME (SEC) =        204
1

   Abaqus 6.13-1                                  Date 22-Jan-2017   Time 21:11:22
   For use by  under license from Dassault Systemes or its subsidiary.

                                                                                               STEP    1  INCREMENT    1
                                                                                          TIME COMPLETED IN THIS STEP   0.00    


                        A N A L Y S I S    D A T A C H E C K


  
                   M E M O R Y   E S T I M A T E
  
 PROCESS      FLOATING PT       MINIMUM MEMORY        MEMORY TO
              OPERATIONS           REQUIRED          MINIMIZE I/O
             PER ITERATION         (MBYTES)           (MBYTES)
  
     1         3.96E+013             3702              41710
  
 NOTE:
      (1) SINCE ABAQUS DOES NOT PRE-ALLOCATE MEMORY AND ONLY ALLOCATES MEMORY AS NEEDED DURING THE ANALYSIS,
          THE MEMORY REQUIREMENT PRINTED HERE CAN ONLY BE VIEWED AS A GENERAL GUIDELINE BASED ON THE BEST
          KNOWLEDGE AVAILABLE AT THE BEGINNING OF A STEP BEFORE THE SOLUTION PROCESS HAS BEGUN.
      (2) THE ESTIMATE IS NORMALLY UPDATED AT THE BEGINNING OF EVERY STEP. IT IS THE MAXIMUM VALUE OF THE
          ESTIMATE FROM THE CURRENT STEP TO THE LAST STEP OF THE ANALYSIS, WITH UNSYMMETRIC SOLUTION TAKEN
          INTO ACCOUNT IF APPLICABLE. 
      (3) SINCE THE ESTIMATE IS BASED ON THE ACTIVE DEGREES OF FREEDOM IN THE FIRST ITERATION OF THE 
          CURRENT STEP, THE MEMORY ESTIMATE MIGHT BE SIGNIFICANTLY DIFFERENT THAN ACTUAL USAGE FOR 
          PROBLEMS WITH SUBSTANTIAL CHANGES IN ACTIVE DEGREES OF FREEDOM BETWEEN STEPS (OR EVEN WITHIN
          THE SAME STEP). EXAMPLES ARE: PROBLEMS WITH SIGNIFICANT CONTACT CHANGES, PROBLEMS WITH MODEL
          CHANGE, PROBLEMS WITH BOTH STATIC STEP AND STEADY STATE DYNAMIC PROCEDURES WHERE ACOUSTIC 
          ELEMENTS WILL ONLY BE ACTIVATED IN THE STEADY STATE DYNAMIC STEPS.
      (4) FOR MULTI-PROCESS EXECUTION, THE ESTIMATED VALUE OF FLOATING POINT OPERATIONS FOR EACH PROCESS
          IS BASED ON AN INITIAL SCHEDULING OF OPERATIONS AND MIGHT NOT REFLECT THE ACTUAL FLOATING 
          POINT OPERATIONS COMPLETED ON EACH PROCESS. OPERATIONS ARE DYNAMICALLY BALANCED DURING EXECUTION, 
          SO THE ACTUAL BALANCE OF OPERATIONS BETWEEN PROCESSES IS EXPECTED TO BE BETTER THAN THE ESTIMATE
          PRINTED HERE.
      (5) THE UPPER LIMIT OF MEMORY THAT CAN BE ALLOCATED BY ABAQUS WILL IN GENERAL DEPEND ON THE VALUE OF
          THE "MEMORY" PARAMETER AND THE AMOUNT OF PHYSICAL MEMORY AVAILABLE ON THE MACHINE. PLEASE SEE
          THE "ABAQUS ANALYSIS USER'S MANUAL" FOR MORE DETAILS. THE ACTUAL USAGE OF MEMORY AND OF DISK
          SPACE FOR SCRATCH DATA WILL DEPEND ON THIS UPPER LIMIT AS WELL AS THE MEMORY REQUIRED TO MINIMIZE
          I/O. IF THE MEMORY UPPER LIMIT IS GREATER THAN THE MEMORY REQUIRED TO MINIMIZE I/O, THEN THE ACTUAL
          MEMORY USAGE WILL BE CLOSE TO THE ESTIMATED "MEMORY TO MINIMIZE I/O" VALUE, AND THE SCRATCH DISK
          USAGE WILL BE CLOSE-TO-ZERO; OTHERWISE, THE ACTUAL MEMORY USED WILL BE CLOSE TO THE PREVIOUSLY
          MENTIONED MEMORY LIMIT, AND THE SCRATCH DISK USAGE WILL BE ROUGHLY PROPORTIONAL TO THE DIFFERENCE
          BETWEEN THE ESTIMATED "MEMORY TO MINIMIZE I/O" AND THE MEMORY UPPER LIMIT. HOWEVER ACCURATE
          ESTIMATE OF THE SCRATCH DISK SPACE IS NOT POSSIBLE.
      (6) USING "*RESTART, WRITE" CAN GENERATE A LARGE AMOUNT OF DATA WRITTEN IN THE WORK DIRECTORY.



                              ANALYSIS DATACHECK COMPLETE
                              WITH    138 WARNING MESSAGES ON THE DAT FILE



     JOB TIME SUMMARY
       USER TIME (SEC)      =   413.80    
       SYSTEM TIME (SEC)    =   23.400    
       TOTAL CPU TIME (SEC) =   437.20    
       WALLCLOCK TIME (SEC) =        308
