*Heading
** Job name: 2D_Cantilever Model name: Model-1
** Generated by: Abaqus/CAE 6.13-1
*Preprint, echo=NO, model=NO, history=NO, contact=NO
**
** PARTS
**
*Part, name=Beam
*Node
      1,           0.,           0.
      2, 0.0399999991,           0.
      3, 0.0799999982,           0.
      4,  0.119999997,           0.
      5,  0.159999996,           0.
      6,  0.200000003,           0.
      7,  0.239999995,           0.
      8,  0.280000001,           0.
      9,  0.319999993,           0.
     10,  0.360000014,           0.
     11,  0.400000006,           0.
     12,  0.439999998,           0.
     13,  0.479999989,           0.
     14,  0.519999981,           0.
     15,  0.560000002,           0.
     16,  0.600000024,           0.
     17,  0.639999986,           0.
     18,  0.680000007,           0.
     19,  0.720000029,           0.
     20,   0.75999999,           0.
** ... 266 like lines cut
*Element, type=CPS4R
  1,   1,   2,  28,  27
  2,   2,   3,  29,  28
  3,   3,   4,  30,  29
  4,   4,   5,  31,  30
  5,   5,   6,  32,  31
  6,   6,   7,  33,  32
  7,   7,   8,  34,  33
  8,   8,   9,  35,  34
  9,   9,  10,  36,  35
 10,  10,  11,  37,  36
 11,  11,  12,  38,  37
 12,  12,  13,  39,  38
 13,  13,  14,  40,  39
 14,  14,  15,  41,  40
 15,  15,  16,  42,  41
 16,  16,  17,  43,  42
 17,  17,  18,  44,  43
 18,  18,  19,  45,  44
 19,  19,  20,  46,  45
 20,  20,  21,  47,  46
** ... 230 like lines cut
*Nset, nset=_PickedSet2, internal, generate
   1,  286,    1
*Elset, elset=_PickedSet2, internal, generate
   1,  250,    1
** Section: Steel
*Solid Section, elset=_PickedSet2, material=Steel
0.1,
*End Part
**  
**
** ASSEMBLY
**
*Assembly, name=Assembly
**  
*Instance, name=Beam-1, part=Beam
*End Instance
**  
*Nset, nset=Fixed_End, instance=Beam-1, generate
   1,  261,   26
*Elset, elset=Fixed_End, instance=Beam-1, generate
   1,  226,   25
*Nset, nset=Load_Points, instance=Beam-1
  26, 286
*End Assembly
** 
** MATERIALS
** 
*Material, name=Steel
*Elastic
 2e+11, 0.3
** ----------------------------------------------------------------
** 
** STEP: Step-1
** 
*Step, name=Step-1, nlgeom=NO
Tip Load
*Static
1., 1., 1e-05, 1.
** 
** BOUNDARY CONDITIONS
** 
** Name: Cantilever_Fixed Type: Symmetry/Antisymmetry/Encastre
*Boundary
Fixed_End, ENCASTRE
** 
** LOADS
** 
** Name: Tip_Load   Type: Concentrated force
*Cload
Load_Points, 2, -10000.
** 
** OUTPUT REQUESTS
** 
*Restart, write, frequency=0
** 
** FIELD OUTPUT: F-Output-1
** 
*Output, field
*Node Output
CF, RF, RM, RT, U, UR, UT
*Element Output, directions=YES
E, EE, MISES, S
** 
** HISTORY OUTPUT: H-Output-1
** 
*Output, history, variable=PRESELECT
*End Step
