1

   Abaqus 6.12-1                                  Date 04-Nov-2016   Time 16:36:52
   For use at  under license from Dassault Systemes or its subsidiary.



                         The Abaqus Software is a product of:

                           Dassault Systemes Simulia Corp.
                                 Rising Sun Mills
                                 166 Valley Street
                           Providence, RI 02909-2499, USA
 


                   Available for internal use at . 
                   The Abaqus Online Support System is accessible
                   through the "My Support" section of the SIMULIA
                   Home Page at http://www.simulia.com.

                   Support policies for academic licenses are described
                   on the SIMULIA web site at
                   http://www.simulia.com/academics/academic_support.html.
 
                          On machine w4069.see.ed.ac.uk 
                          you are authorized to run
                          Abaqus/Standard until 30-Jun-2017

                          Your site id is: 200000000040703 


 
                    For assistance or any other information you may
                    obtain contact information for your local office
                    from the world wide web at:

                      http://www.simulia.com/about/locations.html

 
                * * * * * * * * * * * * * * * * * * * * * * * * * * * * * * 
                *                                                         * 
                *                   *****************                     * 
                *                   *  N O T I C E  *                     * 
                *                   *****************                     * 
                *                                                         * 
                *                                                         * 
                *                    Abaqus 6.12-1                        * 
                *                                                         * 
                *          BUILD ID: 2012_03_13-20.21.46 119612           * 
                *                                                         * 
                *                                                         * 
                *  Please make sure you are using release 6.12 manuals    * 
                *  plus the notes accompanying this release.              * 
                *                                                         * 
                *                                                         * 
                *                                                         * 
                *                                                         * 
                *                                                         * 
                *   This program may not be used for commercial purposes  * 
                *           without payment of a commercial fee.          * 
                *                                                         * 
                * * * * * * * * * * * * * * * * * * * * * * * * * * * * * * 


 



     PROCESSING PART, INSTANCE, AND ASSEMBLY INFORMATION
   *******************************************************


     END PROCESSING PART, INSTANCE, AND ASSEMBLY INFORMATION
   ***********************************************************

1

   Abaqus 6.12-1                                  Date 04-Nov-2016   Time 16:36:52
   For use at  under license from Dassault Systemes or its subsidiary.

                                                                                     

                                             A B A Q U S   I N P U T   E C H O


                        5   10   15   20   25   30   35   40   45   50   55   60   65   70   75   80
                    --------------------------------------------------------------------------------
                    *HEADING
                    5m LONG BY 1m DEEP BY 0.2m THICK SIMPLY SUPPORTED BEAM WITH 100 KN/M DISTRIBUTED LOAD, 20X20 CPS4I MESH, E=200 GPa, V = 0.3     
                    ******************************  
                    *NODE   
     LINE     5     ** DEFINE LOCATION OF CORNER NODES      
                    1, 0.0, 0.0     
                    21, 5.0, 0.0    
                    2001, 0.0, 1.0  
                    2021, 5.0, 1.0  
     LINE    10     ******************************  
                    *NGEN, NSET=BOTTOM      
                    ** GENERATE ELEMENTS ALONG BOTTOM AND ADD NODES TO SET "BOTTOM" 
                    1, 21, 1
                    ******************************  
     LINE    15     ** CREATE NODES ALONG TOP AND ADD NODES TO SET "TOP"    
                    *NGEN, NSET=TOP 
                    2001, 2021, 1   
                    ******************************  
                    ** CREATE NODES BETWEEN "LEFT" AND "RIGHT", 20 NODES BETWEEN ENDS WITH NODE NUMBERING STEP OF 1 
     LINE    20     *NFILL  
                    BOTTOM, TOP, 20, 100    
                    ******************************  
                    **DEFINE THE FIRST "MASTER ELEMENT" NUMBER 1 AS A CPS4R CONSISTING OF NODES 1,2,102 AND 101     
                    *ELEMENT, TYPE=CPS4R    
     LINE    25     1, 1, 2, 102, 101       
                    ******************************  
                    ** GENERATE THE REST OF THE ELEMENTS BY COPYING ELEMENT 1, 4 ELEMENTS IN X, 4 ELEMENTS IN Y, NODE NUMBER INCREMENT OF 4 IN X, NODE NUMBER INCREMENT OF 100 IN Y, ELEMENT NUMBER INCREMENT OF 4 FROM ROW TO ROW, ASSIGN ELEMENTS TO SET "EALL"   
                    *ELGEN, ELSET=EALL      
                    1,20,1,1,20,100,20      
     LINE    30     ******************************  
                    ** DEFINE MATERIAL CALLED "STEEL"       
                    *MATERIAL,NAME=STEEL    
                    ******************************  
                    ** DEFINE ELASTIC MATERIAL PROPERTIES, E = 200 GPa AND POISSON'S RATIO 0.3      
     LINE    35     *ELASTIC
                    200E9, 0.3      
                    ******************************  
                    ** CREATE SECTION FROM MATERIAL "STEEL" AND ASSIGN IT TO ELEMENT SET "EALL", THICKNESS IS 0.1M  
                    *SOLID SECTION, MATERIAL=STEEL, ELSET=EALL      
     LINE    40     0.2     
                    ******************************  
                    **ASSIGN ELEMENTS IN TOP ROW TO ELSET "TOP"     
                    *ELSET, ELSET=TOP, GENERATE     
                    381, 400, 1     
     LINE    45     ******************************  
                    **CREATE NODE SET AT L/5 FOR PLOTS      
                    *NSET, NSET=CUT, GENERATE       
                    5, 2005, 100    
                    ******************************  
     LINE    50     **ASK FOR HISTORY AND MODEL DATA TO BE INCLUDED IN RESULTS FILE 
                    *PREPRINT, ECHO=YES, MODEL=YES, HISTORY=YES     
                    ******************************  
                    ** BEGIN LINEAR STEP    
                    *STEP, PERTURBATION     
     LINE    55     ******************************  
                    ** DEFINE STEP AS STATIC
                    *STATIC 
                    ******************************  
                    ** DEFINE FIXED BOUNDARY AT NODE 1 LOCKED IN X AND Y DIRECTION AND AT NODE 21 LOCKED IN Y DIRECTION     
     LINE    60     *BOUNDARY       
                    1, 1, 2 
                    21, 2, 2
                    ******************************  
                    ** DEFINE CONCENTRATED LOAD OF -0.5N IN Y DIRECTION ON EACH END CORNER NODE     
     LINE    65     *DLOAD  
                    TOP, P3, 500E3  
                    ******************************  
                    ** ASK ABAQUS TO PRINT COORDINATE, STRESS AND STRAIN FOR EACH ELEMENT (AT INTEGRATION POINTS INSIDE CELLS)      
                    *EL PRINT       
     LINE    70     COORD   
                    S       
                    E       
                    ******************************  
                    ** ASK ABAQUS TO PRINT STRESS VALUES AT NODES   
     LINE    75     *EL PRINT, POSITION=AVERAGED AT NODES   
                    S       
                    ******************************  
                    ** ASK ABAQUS TO PRINT FORCES AND DISPLACEMENTS AT NODES
                    *NODE PRINT     
     LINE    80     U       
                    RF      
                    ******************************  
                    ** END THE STEP 
                    *END STEP       
                    --------------------------------------------------------------------------------
                        5   10   15   20   25   30   35   40   45   50   55   60   65   70   75   80
                    --------------------------------------------------------------------------------



     OPTIONS BEING PROCESSED
   ***************************


  *HEADING
          5m LONG BY 1m DEEP BY 0.2m THICK SIMPLY SUPPORTED BEAM WITH 100 KN/M DISTRIBUTED LOAD, 20X20 CPS4I MESH, E=200 GPa, V = 0.3                                                                                                                                     
  *NODE
  *NGEN, NSET=BOTTOM
  *NGEN, NSET=TOP
  *NFILL

     THE FOLLOWING NODES WILL BE USED IN THE NFILL GENERATION


          BOUND  1              1         2         3         4         5         6         7         8         9        10
                               11        12        13        14        15        16        17        18        19        20
                               21

          BOUND  2           2001      2002      2003      2004      2005      2006      2007      2008      2009      2010
                             2011      2012      2013      2014      2015      2016      2017      2018      2019      2020
                             2021
  *ELEMENT, TYPE=CPS4R
  *ELGEN, ELSET=EALL
  *ELSET, ELSET=TOP, GENERATE
  *NSET, NSET=CUT, GENERATE
  *MATERIAL,NAME=STEEL
  *ELASTIC
  *SOLID SECTION, MATERIAL=STEEL, ELSET=EALL
  *BOUNDARY
  *SOLID SECTION, MATERIAL=STEEL, ELSET=EALL
  *STEP, PERTURBATION
  *STEP, PERTURBATION
  *STEP, PERTURBATION
  *STATIC
  *BOUNDARY
  *DLOAD
  *EL PRINT
  *EL PRINT, POSITION=AVERAGED AT NODES
  *NODE PRINT
  *END STEP
  *STEP, PERTURBATION
  *STATIC
  *BOUNDARY
  *END STEP
1

   Abaqus 6.12-1                                  Date 04-Nov-2016   Time 16:36:52
   For use at  under license from Dassault Systemes or its subsidiary.

     5m LONG BY 1m DEEP BY 0.2m THICK SIMPLY SUPPORTED BEAM WITH 100 KN/M DISTRIBUTED


                              E L E M E N T   D E F I N I T I O N S

       NUMBER   TYPE    PROPERTY    NODES FORMING ELEMENT
                        REFERENCE

          1   CPS4R         1          1         2       102       101
          2   CPS4R         1          2         3       103       102
          3   CPS4R         1          3         4       104       103
          4   CPS4R         1          4         5       105       104
          5   CPS4R         1          5         6       106       105
          6   CPS4R         1          6         7       107       106
          7   CPS4R         1          7         8       108       107
          8   CPS4R         1          8         9       109       108
          9   CPS4R         1          9        10       110       109
         10   CPS4R         1         10        11       111       110
         11   CPS4R         1         11        12       112       111
         12   CPS4R         1         12        13       113       112
         13   CPS4R         1         13        14       114       113
         14   CPS4R         1         14        15       115       114
         15   CPS4R         1         15        16       116       115
         16   CPS4R         1         16        17       117       116
         17   CPS4R         1         17        18       118       117
         18   CPS4R         1         18        19       119       118
         19   CPS4R         1         19        20       120       119
         20   CPS4R         1         20        21       121       120
         21   CPS4R         1        101       102       202       201
         22   CPS4R         1        102       103       203       202
         23   CPS4R         1        103       104       204       203
         24   CPS4R         1        104       105       205       204
         25   CPS4R         1        105       106       206       205
         26   CPS4R         1        106       107       207       206
         27   CPS4R         1        107       108       208       207
         28   CPS4R         1        108       109       209       208
         29   CPS4R         1        109       110       210       209
         30   CPS4R         1        110       111       211       210
         31   CPS4R         1        111       112       212       211
         32   CPS4R         1        112       113       213       212
         33   CPS4R         1        113       114       214       213
         34   CPS4R         1        114       115       215       214
         35   CPS4R         1        115       116       216       215
         36   CPS4R         1        116       117       217       216
         37   CPS4R         1        117       118       218       217
         38   CPS4R         1        118       119       219       218
         39   CPS4R         1        119       120       220       219
         40   CPS4R         1        120       121       221       220
         41   CPS4R         1        201       202       302       301
         42   CPS4R         1        202       203       303       302
         43   CPS4R         1        203       204       304       303
         44   CPS4R         1        204       205       305       304
         45   CPS4R         1        205       206       306       305
         46   CPS4R         1        206       207       307       306
         47   CPS4R         1        207       208       308       307
         48   CPS4R         1        208       209       309       308
         49   CPS4R         1        209       210       310       309
         50   CPS4R         1        210       211       311       310
         51   CPS4R         1        211       212       312       311
         52   CPS4R         1        212       213       313       312
         53   CPS4R         1        213       214       314       313
         54   CPS4R         1        214       215       315       314
         55   CPS4R         1        215       216       316       315
         56   CPS4R         1        216       217       317       316
         57   CPS4R         1        217       218       318       317
         58   CPS4R         1        218       219       319       318
         59   CPS4R         1        219       220       320       319
         60   CPS4R         1        220       221       321       320
         61   CPS4R         1        301       302       402       401
         62   CPS4R         1        302       303       403       402
         63   CPS4R         1        303       304       404       403
         64   CPS4R         1        304       305       405       404
         65   CPS4R         1        305       306       406       405
         66   CPS4R         1        306       307       407       406
         67   CPS4R         1        307       308       408       407
         68   CPS4R         1        308       309       409       408
         69   CPS4R         1        309       310       410       409
         70   CPS4R         1        310       311       411       410
         71   CPS4R         1        311       312       412       411
         72   CPS4R         1        312       313       413       412
         73   CPS4R         1        313       314       414       413
         74   CPS4R         1        314       315       415       414
         75   CPS4R         1        315       316       416       415
         76   CPS4R         1        316       317       417       416
         77   CPS4R         1        317       318       418       417
         78   CPS4R         1        318       319       419       418
         79   CPS4R         1        319       320       420       419
         80   CPS4R         1        320       321       421       420
         81   CPS4R         1        401       402       502       501
         82   CPS4R         1        402       403       503       502
         83   CPS4R         1        403       404       504       503
         84   CPS4R         1        404       405       505       504
         85   CPS4R         1        405       406       506       505
         86   CPS4R         1        406       407       507       506
         87   CPS4R         1        407       408       508       507
         88   CPS4R         1        408       409       509       508
         89   CPS4R         1        409       410       510       509
         90   CPS4R         1        410       411       511       510
         91   CPS4R         1        411       412       512       511
         92   CPS4R         1        412       413       513       512
         93   CPS4R         1        413       414       514       513
         94   CPS4R         1        414       415       515       514
         95   CPS4R         1        415       416       516       515
         96   CPS4R         1        416       417       517       516
         97   CPS4R         1        417       418       518       517
         98   CPS4R         1        418       419       519       518
         99   CPS4R         1        419       420       520       519
        100   CPS4R         1        420       421       521       520
        101   CPS4R         1        501       502       602       601
        102   CPS4R         1        502       503       603       602
        103   CPS4R         1        503       504       604       603
        104   CPS4R         1        504       505       605       604
        105   CPS4R         1        505       506       606       605
        106   CPS4R         1        506       507       607       606
        107   CPS4R         1        507       508       608       607
        108   CPS4R         1        508       509       609       608
        109   CPS4R         1        509       510       610       609
        110   CPS4R         1        510       511       611       610
        111   CPS4R         1        511       512       612       611
        112   CPS4R         1        512       513       613       612
        113   CPS4R         1        513       514       614       613
        114   CPS4R         1        514       515       615       614
        115   CPS4R         1        515       516       616       615
        116   CPS4R         1        516       517       617       616
        117   CPS4R         1        517       518       618       617
        118   CPS4R         1        518       519       619       618
        119   CPS4R         1        519       520       620       619
        120   CPS4R         1        520       521       621       620
        121   CPS4R         1        601       602       702       701
        122   CPS4R         1        602       603       703       702
        123   CPS4R         1        603       604       704       703
        124   CPS4R         1        604       605       705       704
        125   CPS4R         1        605       606       706       705
        126   CPS4R         1        606       607       707       706
        127   CPS4R         1        607       608       708       707
        128   CPS4R         1        608       609       709       708
        129   CPS4R         1        609       610       710       709
        130   CPS4R         1        610       611       711       710
        131   CPS4R         1        611       612       712       711
        132   CPS4R         1        612       613       713       712
        133   CPS4R         1        613       614       714       713
        134   CPS4R         1        614       615       715       714
        135   CPS4R         1        615       616       716       715
        136   CPS4R         1        616       617       717       716
        137   CPS4R         1        617       618       718       717
        138   CPS4R         1        618       619       719       718
        139   CPS4R         1        619       620       720       719
        140   CPS4R         1        620       621       721       720
        141   CPS4R         1        701       702       802       801
        142   CPS4R         1        702       703       803       802
        143   CPS4R         1        703       704       804       803
        144   CPS4R         1        704       705       805       804
        145   CPS4R         1        705       706       806       805
        146   CPS4R         1        706       707       807       806
        147   CPS4R         1        707       708       808       807
        148   CPS4R         1        708       709       809       808
        149   CPS4R         1        709       710       810       809
        150   CPS4R         1        710       711       811       810
        151   CPS4R         1        711       712       812       811
        152   CPS4R         1        712       713       813       812
        153   CPS4R         1        713       714       814       813
        154   CPS4R         1        714       715       815       814
        155   CPS4R         1        715       716       816       815
        156   CPS4R         1        716       717       817       816
        157   CPS4R         1        717       718       818       817
        158   CPS4R         1        718       719       819       818
        159   CPS4R         1        719       720       820       819
        160   CPS4R         1        720       721       821       820
        161   CPS4R         1        801       802       902       901
        162   CPS4R         1        802       803       903       902
        163   CPS4R         1        803       804       904       903
        164   CPS4R         1        804       805       905       904
        165   CPS4R         1        805       806       906       905
        166   CPS4R         1        806       807       907       906
        167   CPS4R         1        807       808       908       907
        168   CPS4R         1        808       809       909       908
        169   CPS4R         1        809       810       910       909
        170   CPS4R         1        810       811       911       910
        171   CPS4R         1        811       812       912       911
        172   CPS4R         1        812       813       913       912
        173   CPS4R         1        813       814       914       913
        174   CPS4R         1        814       815       915       914
        175   CPS4R         1        815       816       916       915
        176   CPS4R         1        816       817       917       916
        177   CPS4R         1        817       818       918       917
        178   CPS4R         1        818       819       919       918
        179   CPS4R         1        819       820       920       919
        180   CPS4R         1        820       821       921       920
        181   CPS4R         1        901       902      1002      1001
        182   CPS4R         1        902       903      1003      1002
        183   CPS4R         1        903       904      1004      1003
        184   CPS4R         1        904       905      1005      1004
        185   CPS4R         1        905       906      1006      1005
        186   CPS4R         1        906       907      1007      1006
        187   CPS4R         1        907       908      1008      1007
        188   CPS4R         1        908       909      1009      1008
        189   CPS4R         1        909       910      1010      1009
        190   CPS4R         1        910       911      1011      1010
        191   CPS4R         1        911       912      1012      1011
        192   CPS4R         1        912       913      1013      1012
        193   CPS4R         1        913       914      1014      1013
        194   CPS4R         1        914       915      1015      1014
        195   CPS4R         1        915       916      1016      1015
        196   CPS4R         1        916       917      1017      1016
        197   CPS4R         1        917       918      1018      1017
        198   CPS4R         1        918       919      1019      1018
        199   CPS4R         1        919       920      1020      1019
        200   CPS4R         1        920       921      1021      1020
        201   CPS4R         1       1001      1002      1102      1101
        202   CPS4R         1       1002      1003      1103      1102
        203   CPS4R         1       1003      1004      1104      1103
        204   CPS4R         1       1004      1005      1105      1104
        205   CPS4R         1       1005      1006      1106      1105
        206   CPS4R         1       1006      1007      1107      1106
        207   CPS4R         1       1007      1008      1108      1107
        208   CPS4R         1       1008      1009      1109      1108
        209   CPS4R         1       1009      1010      1110      1109
        210   CPS4R         1       1010      1011      1111      1110
        211   CPS4R         1       1011      1012      1112      1111
        212   CPS4R         1       1012      1013      1113      1112
        213   CPS4R         1       1013      1014      1114      1113
        214   CPS4R         1       1014      1015      1115      1114
        215   CPS4R         1       1015      1016      1116      1115
        216   CPS4R         1       1016      1017      1117      1116
        217   CPS4R         1       1017      1018      1118      1117
        218   CPS4R         1       1018      1019      1119      1118
        219   CPS4R         1       1019      1020      1120      1119
        220   CPS4R         1       1020      1021      1121      1120
        221   CPS4R         1       1101      1102      1202      1201
        222   CPS4R         1       1102      1103      1203      1202
        223   CPS4R         1       1103      1104      1204      1203
        224   CPS4R         1       1104      1105      1205      1204
        225   CPS4R         1       1105      1106      1206      1205
        226   CPS4R         1       1106      1107      1207      1206
        227   CPS4R         1       1107      1108      1208      1207
        228   CPS4R         1       1108      1109      1209      1208
        229   CPS4R         1       1109      1110      1210      1209
        230   CPS4R         1       1110      1111      1211      1210
        231   CPS4R         1       1111      1112      1212      1211
        232   CPS4R         1       1112      1113      1213      1212
        233   CPS4R         1       1113      1114      1214      1213
        234   CPS4R         1       1114      1115      1215      1214
        235   CPS4R         1       1115      1116      1216      1215
        236   CPS4R         1       1116      1117      1217      1216
        237   CPS4R         1       1117      1118      1218      1217
        238   CPS4R         1       1118      1119      1219      1218
        239   CPS4R         1       1119      1120      1220      1219
        240   CPS4R         1       1120      1121      1221      1220
        241   CPS4R         1       1201      1202      1302      1301
        242   CPS4R         1       1202      1203      1303      1302
        243   CPS4R         1       1203      1204      1304      1303
        244   CPS4R         1       1204      1205      1305      1304
        245   CPS4R         1       1205      1206      1306      1305
        246   CPS4R         1       1206      1207      1307      1306
        247   CPS4R         1       1207      1208      1308      1307
        248   CPS4R         1       1208      1209      1309      1308
        249   CPS4R         1       1209      1210      1310      1309
        250   CPS4R         1       1210      1211      1311      1310
        251   CPS4R         1       1211      1212      1312      1311
        252   CPS4R         1       1212      1213      1313      1312
        253   CPS4R         1       1213      1214      1314      1313
        254   CPS4R         1       1214      1215      1315      1314
        255   CPS4R         1       1215      1216      1316      1315
        256   CPS4R         1       1216      1217      1317      1316
        257   CPS4R         1       1217      1218      1318      1317
        258   CPS4R         1       1218      1219      1319      1318
        259   CPS4R         1       1219      1220      1320      1319
        260   CPS4R         1       1220      1221      1321      1320
        261   CPS4R         1       1301      1302      1402      1401
        262   CPS4R         1       1302      1303      1403      1402
        263   CPS4R         1       1303      1304      1404      1403
        264   CPS4R         1       1304      1305      1405      1404
        265   CPS4R         1       1305      1306      1406      1405
        266   CPS4R         1       1306      1307      1407      1406
        267   CPS4R         1       1307      1308      1408      1407
        268   CPS4R         1       1308      1309      1409      1408
        269   CPS4R         1       1309      1310      1410      1409
        270   CPS4R         1       1310      1311      1411      1410
        271   CPS4R         1       1311      1312      1412      1411
        272   CPS4R         1       1312      1313      1413      1412
        273   CPS4R         1       1313      1314      1414      1413
        274   CPS4R         1       1314      1315      1415      1414
        275   CPS4R         1       1315      1316      1416      1415
        276   CPS4R         1       1316      1317      1417      1416
        277   CPS4R         1       1317      1318      1418      1417
        278   CPS4R         1       1318      1319      1419      1418
        279   CPS4R         1       1319      1320      1420      1419
        280   CPS4R         1       1320      1321      1421      1420
        281   CPS4R         1       1401      1402      1502      1501
        282   CPS4R         1       1402      1403      1503      1502
        283   CPS4R         1       1403      1404      1504      1503
        284   CPS4R         1       1404      1405      1505      1504
        285   CPS4R         1       1405      1406      1506      1505
        286   CPS4R         1       1406      1407      1507      1506
        287   CPS4R         1       1407      1408      1508      1507
        288   CPS4R         1       1408      1409      1509      1508
        289   CPS4R         1       1409      1410      1510      1509
        290   CPS4R         1       1410      1411      1511      1510
        291   CPS4R         1       1411      1412      1512      1511
        292   CPS4R         1       1412      1413      1513      1512
        293   CPS4R         1       1413      1414      1514      1513
        294   CPS4R         1       1414      1415      1515      1514
        295   CPS4R         1       1415      1416      1516      1515
        296   CPS4R         1       1416      1417      1517      1516
        297   CPS4R         1       1417      1418      1518      1517
        298   CPS4R         1       1418      1419      1519      1518
        299   CPS4R         1       1419      1420      1520      1519
        300   CPS4R         1       1420      1421      1521      1520
        301   CPS4R         1       1501      1502      1602      1601
        302   CPS4R         1       1502      1503      1603      1602
        303   CPS4R         1       1503      1504      1604      1603
        304   CPS4R         1       1504      1505      1605      1604
        305   CPS4R         1       1505      1506      1606      1605
        306   CPS4R         1       1506      1507      1607      1606
        307   CPS4R         1       1507      1508      1608      1607
        308   CPS4R         1       1508      1509      1609      1608
        309   CPS4R         1       1509      1510      1610      1609
        310   CPS4R         1       1510      1511      1611      1610
        311   CPS4R         1       1511      1512      1612      1611
        312   CPS4R         1       1512      1513      1613      1612
        313   CPS4R         1       1513      1514      1614      1613
        314   CPS4R         1       1514      1515      1615      1614
        315   CPS4R         1       1515      1516      1616      1615
        316   CPS4R         1       1516      1517      1617      1616
        317   CPS4R         1       1517      1518      1618      1617
        318   CPS4R         1       1518      1519      1619      1618
        319   CPS4R         1       1519      1520      1620      1619
        320   CPS4R         1       1520      1521      1621      1620
        321   CPS4R         1       1601      1602      1702      1701
        322   CPS4R         1       1602      1603      1703      1702
        323   CPS4R         1       1603      1604      1704      1703
        324   CPS4R         1       1604      1605      1705      1704
        325   CPS4R         1       1605      1606      1706      1705
        326   CPS4R         1       1606      1607      1707      1706
        327   CPS4R         1       1607      1608      1708      1707
        328   CPS4R         1       1608      1609      1709      1708
        329   CPS4R         1       1609      1610      1710      1709
        330   CPS4R         1       1610      1611      1711      1710
        331   CPS4R         1       1611      1612      1712      1711
        332   CPS4R         1       1612      1613      1713      1712
        333   CPS4R         1       1613      1614      1714      1713
        334   CPS4R         1       1614      1615      1715      1714
        335   CPS4R         1       1615      1616      1716      1715
        336   CPS4R         1       1616      1617      1717      1716
        337   CPS4R         1       1617      1618      1718      1717
        338   CPS4R         1       1618      1619      1719      1718
        339   CPS4R         1       1619      1620      1720      1719
        340   CPS4R         1       1620      1621      1721      1720
        341   CPS4R         1       1701      1702      1802      1801
        342   CPS4R         1       1702      1703      1803      1802
        343   CPS4R         1       1703      1704      1804      1803
        344   CPS4R         1       1704      1705      1805      1804
        345   CPS4R         1       1705      1706      1806      1805
        346   CPS4R         1       1706      1707      1807      1806
        347   CPS4R         1       1707      1708      1808      1807
        348   CPS4R         1       1708      1709      1809      1808
        349   CPS4R         1       1709      1710      1810      1809
        350   CPS4R         1       1710      1711      1811      1810
        351   CPS4R         1       1711      1712      1812      1811
        352   CPS4R         1       1712      1713      1813      1812
        353   CPS4R         1       1713      1714      1814      1813
        354   CPS4R         1       1714      1715      1815      1814
        355   CPS4R         1       1715      1716      1816      1815
        356   CPS4R         1       1716      1717      1817      1816
        357   CPS4R         1       1717      1718      1818      1817
        358   CPS4R         1       1718      1719      1819      1818
        359   CPS4R         1       1719      1720      1820      1819
        360   CPS4R         1       1720      1721      1821      1820
        361   CPS4R         1       1801      1802      1902      1901
        362   CPS4R         1       1802      1803      1903      1902
        363   CPS4R         1       1803      1804      1904      1903
        364   CPS4R         1       1804      1805      1905      1904
        365   CPS4R         1       1805      1806      1906      1905
        366   CPS4R         1       1806      1807      1907      1906
        367   CPS4R         1       1807      1808      1908      1907
        368   CPS4R         1       1808      1809      1909      1908
        369   CPS4R         1       1809      1810      1910      1909
        370   CPS4R         1       1810      1811      1911      1910
        371   CPS4R         1       1811      1812      1912      1911
        372   CPS4R         1       1812      1813      1913      1912
        373   CPS4R         1       1813      1814      1914      1913
        374   CPS4R         1       1814      1815      1915      1914
        375   CPS4R         1       1815      1816      1916      1915
        376   CPS4R         1       1816      1817      1917      1916
        377   CPS4R         1       1817      1818      1918      1917
        378   CPS4R         1       1818      1819      1919      1918
        379   CPS4R         1       1819      1820      1920      1919
        380   CPS4R         1       1820      1821      1921      1920
        381   CPS4R         1       1901      1902      2002      2001
        382   CPS4R         1       1902      1903      2003      2002
        383   CPS4R         1       1903      1904      2004      2003
        384   CPS4R         1       1904      1905      2005      2004
        385   CPS4R         1       1905      1906      2006      2005
        386   CPS4R         1       1906      1907      2007      2006
        387   CPS4R         1       1907      1908      2008      2007
        388   CPS4R         1       1908      1909      2009      2008
        389   CPS4R         1       1909      1910      2010      2009
        390   CPS4R         1       1910      1911      2011      2010
        391   CPS4R         1       1911      1912      2012      2011
        392   CPS4R         1       1912      1913      2013      2012
        393   CPS4R         1       1913      1914      2014      2013
        394   CPS4R         1       1914      1915      2015      2014
        395   CPS4R         1       1915      1916      2016      2015
        396   CPS4R         1       1916      1917      2017      2016
        397   CPS4R         1       1917      1918      2018      2017
        398   CPS4R         1       1918      1919      2019      2018
        399   CPS4R         1       1919      1920      2020      2019
        400   CPS4R         1       1920      1921      2021      2020





                                S O L I D   S E C T I O N (S)




  PROPERTY NUMBER         1

     MATERIAL NAME                     STEEL                                                                           
     ATTRIBUTES                         0.20000       0.0000       0.0000    

     HOURGLASS CONTROL STIFFNESS    3.84615E+08

     (USED WITH LOWER ORDER REDUCED INTEGRATED SOLID ELEMENTS LIKE CPS4R,CPE4RH,C3D8R)





                         P H Y S I C A L   C O N S T A N T S






                         M A T E R I A L   D E S C R I P T I O N




  MATERIAL NAME: STEEL                                                                           


     ELASTIC         YOUNG'S    POISSON'S
                     MODULUS      RATIO

                    2.00000E+11 0.30000    





                                 E L E M E N T   S E T S


  SET    EALL                                                                            
  MEMBERS                    1         2         3         4         5         6         7         8         9        10        11        12
                            13        14        15        16        17        18        19        20        21        22        23        24
                            25        26        27        28        29        30        31        32        33        34        35        36
                            37        38        39        40        41        42        43        44        45        46        47        48
                            49        50        51        52        53        54        55        56        57        58        59        60
                            61        62        63        64        65        66        67        68        69        70        71        72
                            73        74        75        76        77        78        79        80        81        82        83        84
                            85        86        87        88        89        90        91        92        93        94        95        96
                            97        98        99       100       101       102       103       104       105       106       107       108
                           109       110       111       112       113       114       115       116       117       118       119       120
                           121       122       123       124       125       126       127       128       129       130       131       132
                           133       134       135       136       137       138       139       140       141       142       143       144
                           145       146       147       148       149       150       151       152       153       154       155       156
                           157       158       159       160       161       162       163       164       165       166       167       168
                           169       170       171       172       173       174       175       176       177       178       179       180
                           181       182       183       184       185       186       187       188       189       190       191       192
                           193       194       195       196       197       198       199       200       201       202       203       204
                           205       206       207       208       209       210       211       212       213       214       215       216
                           217       218       219       220       221       222       223       224       225       226       227       228
                           229       230       231       232       233       234       235       236       237       238       239       240
                           241       242       243       244       245       246       247       248       249       250       251       252
                           253       254       255       256       257       258       259       260       261       262       263       264
                           265       266       267       268       269       270       271       272       273       274       275       276
                           277       278       279       280       281       282       283       284       285       286       287       288
                           289       290       291       292       293       294       295       296       297       298       299       300
                           301       302       303       304       305       306       307       308       309       310       311       312
                           313       314       315       316       317       318       319       320       321       322       323       324
                           325       326       327       328       329       330       331       332       333       334       335       336
                           337       338       339       340       341       342       343       344       345       346       347       348
                           349       350       351       352       353       354       355       356       357       358       359       360
                           361       362       363       364       365       366       367       368       369       370       371       372
                           373       374       375       376       377       378       379       380       381       382       383       384
                           385       386       387       388       389       390       391       392       393       394       395       396
                           397       398       399       400

  SET    TOP                                                                             
  MEMBERS                  381       382       383       384       385       386       387       388       389       390       391       392
                           393       394       395       396       397       398       399       400



                                    N O D E   S E T S


  SET    CUT                                                                             
  MEMBERS                    5       105       205       305       405       505       605       705       805       905      1005      1105
                          1205      1305      1405      1505      1605      1705      1805      1905      2005

  SET    BOTTOM                                                                          
  MEMBERS                    1         2         3         4         5         6         7         8         9        10        11        12
                            13        14        15        16        17        18        19        20        21

  SET    TOP                                                                             
  MEMBERS                 2001      2002      2003      2004      2005      2006      2007      2008      2009      2010      2011      2012
                          2013      2014      2015      2016      2017      2018      2019      2020      2021





                                 N O D E   D E F I N I T I O N S

       NODE           COORDINATES                       SINGLE POINT CONSTRAINTS 
      NUMBER                                              TYPE    PLUS    DOF

          1     0.0000       0.0000       0.0000                  1 2                                                  
          2    0.25000       0.0000       0.0000                                                                       
          3    0.50000       0.0000       0.0000                                                                       
          4    0.75000       0.0000       0.0000                                                                       
          5     1.0000       0.0000       0.0000                                                                       
          6     1.2500       0.0000       0.0000                                                                       
          7     1.5000       0.0000       0.0000                                                                       
          8     1.7500       0.0000       0.0000                                                                       
          9     2.0000       0.0000       0.0000                                                                       
         10     2.2500       0.0000       0.0000                                                                       
         11     2.5000       0.0000       0.0000                                                                       
         12     2.7500       0.0000       0.0000                                                                       
         13     3.0000       0.0000       0.0000                                                                       
         14     3.2500       0.0000       0.0000                                                                       
         15     3.5000       0.0000       0.0000                                                                       
         16     3.7500       0.0000       0.0000                                                                       
         17     4.0000       0.0000       0.0000                                                                       
         18     4.2500       0.0000       0.0000                                                                       
         19     4.5000       0.0000       0.0000                                                                       
         20     4.7500       0.0000       0.0000                                                                       
         21     5.0000       0.0000       0.0000                    2                                                  
        101     0.0000      5.00000E-02   0.0000                                                                       
        102    0.25000      5.00000E-02   0.0000                                                                       
        103    0.50000      5.00000E-02   0.0000                                                                       
        104    0.75000      5.00000E-02   0.0000                                                                       
        105     1.0000      5.00000E-02   0.0000                                                                       
        106     1.2500      5.00000E-02   0.0000                                                                       
        107     1.5000      5.00000E-02   0.0000                                                                       
        108     1.7500      5.00000E-02   0.0000                                                                       
        109     2.0000      5.00000E-02   0.0000                                                                       
        110     2.2500      5.00000E-02   0.0000                                                                       
        111     2.5000      5.00000E-02   0.0000                                                                       
        112     2.7500      5.00000E-02   0.0000                                                                       
        113     3.0000      5.00000E-02   0.0000                                                                       
        114     3.2500      5.00000E-02   0.0000                                                                       
        115     3.5000      5.00000E-02   0.0000                                                                       
        116     3.7500      5.00000E-02   0.0000                                                                       
        117     4.0000      5.00000E-02   0.0000                                                                       
        118     4.2500      5.00000E-02   0.0000                                                                       
        119     4.5000      5.00000E-02   0.0000                                                                       
        120     4.7500      5.00000E-02   0.0000                                                                       
        121     5.0000      5.00000E-02   0.0000                                                                       
        201     0.0000      0.10000       0.0000                                                                       
        202    0.25000      0.10000       0.0000                                                                       
        203    0.50000      0.10000       0.0000                                                                       
        204    0.75000      0.10000       0.0000                                                                       
        205     1.0000      0.10000       0.0000                                                                       
        206     1.2500      0.10000       0.0000                                                                       
        207     1.5000      0.10000       0.0000                                                                       
        208     1.7500      0.10000       0.0000                                                                       
        209     2.0000      0.10000       0.0000                                                                       
        210     2.2500      0.10000       0.0000                                                                       
        211     2.5000      0.10000       0.0000                                                                       
        212     2.7500      0.10000       0.0000                                                                       
        213     3.0000      0.10000       0.0000                                                                       
        214     3.2500      0.10000       0.0000                                                                       
        215     3.5000      0.10000       0.0000                                                                       
        216     3.7500      0.10000       0.0000                                                                       
        217     4.0000      0.10000       0.0000                                                                       
        218     4.2500      0.10000       0.0000                                                                       
        219     4.5000      0.10000       0.0000                                                                       
        220     4.7500      0.10000       0.0000                                                                       
        221     5.0000      0.10000       0.0000                                                                       
        301     0.0000      0.15000       0.0000                                                                       
        302    0.25000      0.15000       0.0000                                                                       
        303    0.50000      0.15000       0.0000                                                                       
        304    0.75000      0.15000       0.0000                                                                       
        305     1.0000      0.15000       0.0000                                                                       
        306     1.2500      0.15000       0.0000                                                                       
        307     1.5000      0.15000       0.0000                                                                       
        308     1.7500      0.15000       0.0000                                                                       
        309     2.0000      0.15000       0.0000                                                                       
        310     2.2500      0.15000       0.0000                                                                       
        311     2.5000      0.15000       0.0000                                                                       
        312     2.7500      0.15000       0.0000                                                                       
        313     3.0000      0.15000       0.0000                                                                       
        314     3.2500      0.15000       0.0000                                                                       
        315     3.5000      0.15000       0.0000                                                                       
        316     3.7500      0.15000       0.0000                                                                       
        317     4.0000      0.15000       0.0000                                                                       
        318     4.2500      0.15000       0.0000                                                                       
        319     4.5000      0.15000       0.0000                                                                       
        320     4.7500      0.15000       0.0000                                                                       
        321     5.0000      0.15000       0.0000                                                                       
        401     0.0000      0.20000       0.0000                                                                       
        402    0.25000      0.20000       0.0000                                                                       
        403    0.50000      0.20000       0.0000                                                                       
        404    0.75000      0.20000       0.0000                                                                       
        405     1.0000      0.20000       0.0000                                                                       
        406     1.2500      0.20000       0.0000                                                                       
        407     1.5000      0.20000       0.0000                                                                       
        408     1.7500      0.20000       0.0000                                                                       
        409     2.0000      0.20000       0.0000                                                                       
        410     2.2500      0.20000       0.0000                                                                       
        411     2.5000      0.20000       0.0000                                                                       
        412     2.7500      0.20000       0.0000                                                                       
        413     3.0000      0.20000       0.0000                                                                       
        414     3.2500      0.20000       0.0000                                                                       
        415     3.5000      0.20000       0.0000                                                                       
        416     3.7500      0.20000       0.0000                                                                       
        417     4.0000      0.20000       0.0000                                                                       
        418     4.2500      0.20000       0.0000                                                                       
        419     4.5000      0.20000       0.0000                                                                       
        420     4.7500      0.20000       0.0000                                                                       
        421     5.0000      0.20000       0.0000                                                                       
        501     0.0000      0.25000       0.0000                                                                       
        502    0.25000      0.25000       0.0000                                                                       
        503    0.50000      0.25000       0.0000                                                                       
        504    0.75000      0.25000       0.0000                                                                       
        505     1.0000      0.25000       0.0000                                                                       
        506     1.2500      0.25000       0.0000                                                                       
        507     1.5000      0.25000       0.0000                                                                       
        508     1.7500      0.25000       0.0000                                                                       
        509     2.0000      0.25000       0.0000                                                                       
        510     2.2500      0.25000       0.0000                                                                       
        511     2.5000      0.25000       0.0000                                                                       
        512     2.7500      0.25000       0.0000                                                                       
        513     3.0000      0.25000       0.0000                                                                       
        514     3.2500      0.25000       0.0000                                                                       
        515     3.5000      0.25000       0.0000                                                                       
        516     3.7500      0.25000       0.0000                                                                       
        517     4.0000      0.25000       0.0000                                                                       
        518     4.2500      0.25000       0.0000                                                                       
        519     4.5000      0.25000       0.0000                                                                       
        520     4.7500      0.25000       0.0000                                                                       
        521     5.0000      0.25000       0.0000                                                                       
        601     0.0000      0.30000       0.0000                                                                       
        602    0.25000      0.30000       0.0000                                                                       
        603    0.50000      0.30000       0.0000                                                                       
        604    0.75000      0.30000       0.0000                                                                       
        605     1.0000      0.30000       0.0000                                                                       
        606     1.2500      0.30000       0.0000                                                                       
        607     1.5000      0.30000       0.0000                                                                       
        608     1.7500      0.30000       0.0000                                                                       
        609     2.0000      0.30000       0.0000                                                                       
        610     2.2500      0.30000       0.0000                                                                       
        611     2.5000      0.30000       0.0000                                                                       
        612     2.7500      0.30000       0.0000                                                                       
        613     3.0000      0.30000       0.0000                                                                       
        614     3.2500      0.30000       0.0000                                                                       
        615     3.5000      0.30000       0.0000                                                                       
        616     3.7500      0.30000       0.0000                                                                       
        617     4.0000      0.30000       0.0000                                                                       
        618     4.2500      0.30000       0.0000                                                                       
        619     4.5000      0.30000       0.0000                                                                       
        620     4.7500      0.30000       0.0000                                                                       
        621     5.0000      0.30000       0.0000                                                                       
        701     0.0000      0.35000       0.0000                                                                       
        702    0.25000      0.35000       0.0000                                                                       
        703    0.50000      0.35000       0.0000                                                                       
        704    0.75000      0.35000       0.0000                                                                       
        705     1.0000      0.35000       0.0000                                                                       
        706     1.2500      0.35000       0.0000                                                                       
        707     1.5000      0.35000       0.0000                                                                       
        708     1.7500      0.35000       0.0000                                                                       
        709     2.0000      0.35000       0.0000                                                                       
        710     2.2500      0.35000       0.0000                                                                       
        711     2.5000      0.35000       0.0000                                                                       
        712     2.7500      0.35000       0.0000                                                                       
        713     3.0000      0.35000       0.0000                                                                       
        714     3.2500      0.35000       0.0000                                                                       
        715     3.5000      0.35000       0.0000                                                                       
        716     3.7500      0.35000       0.0000                                                                       
        717     4.0000      0.35000       0.0000                                                                       
        718     4.2500      0.35000       0.0000                                                                       
        719     4.5000      0.35000       0.0000                                                                       
        720     4.7500      0.35000       0.0000                                                                       
        721     5.0000      0.35000       0.0000                                                                       
        801     0.0000      0.40000       0.0000                                                                       
        802    0.25000      0.40000       0.0000                                                                       
        803    0.50000      0.40000       0.0000                                                                       
        804    0.75000      0.40000       0.0000                                                                       
        805     1.0000      0.40000       0.0000                                                                       
        806     1.2500      0.40000       0.0000                                                                       
        807     1.5000      0.40000       0.0000                                                                       
        808     1.7500      0.40000       0.0000                                                                       
        809     2.0000      0.40000       0.0000                                                                       
        810     2.2500      0.40000       0.0000                                                                       
        811     2.5000      0.40000       0.0000                                                                       
        812     2.7500      0.40000       0.0000                                                                       
        813     3.0000      0.40000       0.0000                                                                       
        814     3.2500      0.40000       0.0000                                                                       
        815     3.5000      0.40000       0.0000                                                                       
        816     3.7500      0.40000       0.0000                                                                       
        817     4.0000      0.40000       0.0000                                                                       
        818     4.2500      0.40000       0.0000                                                                       
        819     4.5000      0.40000       0.0000                                                                       
        820     4.7500      0.40000       0.0000                                                                       
        821     5.0000      0.40000       0.0000                                                                       
        901     0.0000      0.45000       0.0000                                                                       
        902    0.25000      0.45000       0.0000                                                                       
        903    0.50000      0.45000       0.0000                                                                       
        904    0.75000      0.45000       0.0000                                                                       
        905     1.0000      0.45000       0.0000                                                                       
        906     1.2500      0.45000       0.0000                                                                       
        907     1.5000      0.45000       0.0000                                                                       
        908     1.7500      0.45000       0.0000                                                                       
        909     2.0000      0.45000       0.0000                                                                       
        910     2.2500      0.45000       0.0000                                                                       
        911     2.5000      0.45000       0.0000                                                                       
        912     2.7500      0.45000       0.0000                                                                       
        913     3.0000      0.45000       0.0000                                                                       
        914     3.2500      0.45000       0.0000                                                                       
        915     3.5000      0.45000       0.0000                                                                       
        916     3.7500      0.45000       0.0000                                                                       
        917     4.0000      0.45000       0.0000                                                                       
        918     4.2500      0.45000       0.0000                                                                       
        919     4.5000      0.45000       0.0000                                                                       
        920     4.7500      0.45000       0.0000                                                                       
        921     5.0000      0.45000       0.0000                                                                       
       1001     0.0000      0.50000       0.0000                                                                       
       1002    0.25000      0.50000       0.0000                                                                       
       1003    0.50000      0.50000       0.0000                                                                       
       1004    0.75000      0.50000       0.0000                                                                       
       1005     1.0000      0.50000       0.0000                                                                       
       1006     1.2500      0.50000       0.0000                                                                       
       1007     1.5000      0.50000       0.0000                                                                       
       1008     1.7500      0.50000       0.0000                                                                       
       1009     2.0000      0.50000       0.0000                                                                       
       1010     2.2500      0.50000       0.0000                                                                       
       1011     2.5000      0.50000       0.0000                                                                       
       1012     2.7500      0.50000       0.0000                                                                       
       1013     3.0000      0.50000       0.0000                                                                       
       1014     3.2500      0.50000       0.0000                                                                       
       1015     3.5000      0.50000       0.0000                                                                       
       1016     3.7500      0.50000       0.0000                                                                       
       1017     4.0000      0.50000       0.0000                                                                       
       1018     4.2500      0.50000       0.0000                                                                       
       1019     4.5000      0.50000       0.0000                                                                       
       1020     4.7500      0.50000       0.0000                                                                       
       1021     5.0000      0.50000       0.0000                                                                       
       1101     0.0000      0.55000       0.0000                                                                       
       1102    0.25000      0.55000       0.0000                                                                       
       1103    0.50000      0.55000       0.0000                                                                       
       1104    0.75000      0.55000       0.0000                                                                       
       1105     1.0000      0.55000       0.0000                                                                       
       1106     1.2500      0.55000       0.0000                                                                       
       1107     1.5000      0.55000       0.0000                                                                       
       1108     1.7500      0.55000       0.0000                                                                       
       1109     2.0000      0.55000       0.0000                                                                       
       1110     2.2500      0.55000       0.0000                                                                       
       1111     2.5000      0.55000       0.0000                                                                       
       1112     2.7500      0.55000       0.0000                                                                       
       1113     3.0000      0.55000       0.0000                                                                       
       1114     3.2500      0.55000       0.0000                                                                       
       1115     3.5000      0.55000       0.0000                                                                       
       1116     3.7500      0.55000       0.0000                                                                       
       1117     4.0000      0.55000       0.0000                                                                       
       1118     4.2500      0.55000       0.0000                                                                       
       1119     4.5000      0.55000       0.0000                                                                       
       1120     4.7500      0.55000       0.0000                                                                       
       1121     5.0000      0.55000       0.0000                                                                       
       1201     0.0000      0.60000       0.0000                                                                       
       1202    0.25000      0.60000       0.0000                                                                       
       1203    0.50000      0.60000       0.0000                                                                       
       1204    0.75000      0.60000       0.0000                                                                       
       1205     1.0000      0.60000       0.0000                                                                       
       1206     1.2500      0.60000       0.0000                                                                       
       1207     1.5000      0.60000       0.0000                                                                       
       1208     1.7500      0.60000       0.0000                                                                       
       1209     2.0000      0.60000       0.0000                                                                       
       1210     2.2500      0.60000       0.0000                                                                       
       1211     2.5000      0.60000       0.0000                                                                       
       1212     2.7500      0.60000       0.0000                                                                       
       1213     3.0000      0.60000       0.0000                                                                       
       1214     3.2500      0.60000       0.0000                                                                       
       1215     3.5000      0.60000       0.0000                                                                       
       1216     3.7500      0.60000       0.0000                                                                       
       1217     4.0000      0.60000       0.0000                                                                       
       1218     4.2500      0.60000       0.0000                                                                       
       1219     4.5000      0.60000       0.0000                                                                       
       1220     4.7500      0.60000       0.0000                                                                       
       1221     5.0000      0.60000       0.0000                                                                       
       1301     0.0000      0.65000       0.0000                                                                       
       1302    0.25000      0.65000       0.0000                                                                       
       1303    0.50000      0.65000       0.0000                                                                       
       1304    0.75000      0.65000       0.0000                                                                       
       1305     1.0000      0.65000       0.0000                                                                       
[...]
        2014      -8.1587E+06 -4.9832E+05  5.2930E+04
        2015      -7.5459E+06 -4.9834E+05  6.9718E+04
        2016      -6.7440E+06 -4.9747E+05  9.0742E+04
        2017      -5.6708E+06 -4.9589E+05  1.2405E+05
        2018      -4.1728E+06 -4.9380E+05  1.7578E+05
        2019      -2.3435E+06 -5.0327E+05  1.9049E+05
        2020      -8.2594E+05 -5.1211E+05  1.1325E+05
        2021      -2.5920E+05 -5.1045E+05  5.1857E+04

 MAXIMUM          8.9991E+06  1.2704E+06  2.5329E+06                                                                        
  NODE                11         203         221                                                                         

 MINIMUM         -8.9556E+06 -9.4622E+06 -2.5329E+06                                                                        
  NODE              2011           1         201                                                                         
  
  
  
  
                                       N O D E   O U T P U T
  
  
  
  
   THE FOLLOWING TABLE IS PRINTED FOR ALL NODES
  
       NODE FOOT-   U1          U2       
            NOTE
  
          2      6.1048E-05 -1.8563E-04 
          3      3.5109E-05 -1.1947E-04 
          4      6.4792E-05 -2.5233E-04 
          5      5.3701E-05 -2.0065E-04 
          6      7.5873E-05 -3.1216E-04 
          7      7.4732E-05 -2.6193E-04 
          8      9.2891E-05 -3.5619E-04 
          9      9.8667E-05 -3.0031E-04 
         10      1.1336E-04 -3.7933E-04 
         11      1.2415E-04 -3.1337E-04 
         12      1.3494E-04 -3.7933E-04 
         13      1.4963E-04 -3.0031E-04 
         14      1.5540E-04 -3.5619E-04 
         15      1.7356E-04 -2.6193E-04 
         16      1.7242E-04 -3.1216E-04 
         17      1.9459E-04 -2.0065E-04 
         18      1.8350E-04 -2.5233E-04 
         19      2.1318E-04 -1.1947E-04 
         20      1.8724E-04 -1.8563E-04 
         21      2.4829E-04   0.000     
        101      6.6203E-05 -8.2762E-05 
        102      3.4746E-05 -1.0894E-04 
        103      6.8508E-05 -1.9288E-04 
        104      5.2831E-05 -1.8291E-04 
        105      7.4933E-05 -2.6811E-04 
        106      7.0382E-05 -2.4789E-04 
        107      8.7757E-05 -3.2548E-04 
        108      9.0577E-05 -2.9520E-04 
        109      1.0491E-04 -3.6160E-04 
        110      1.1273E-04 -3.1993E-04 
        111      1.2415E-04 -3.7392E-04 
        112      1.3556E-04 -3.1993E-04 
        113      1.4338E-04 -3.6160E-04 
        114      1.5771E-04 -2.9520E-04 
        115      1.6054E-04 -3.2548E-04 
        116      1.7791E-04 -2.4789E-04 
        117      1.7336E-04 -2.6811E-04 
        118      1.9546E-04 -1.8291E-04 
        119      1.7978E-04 -1.9288E-04 
        120      2.1355E-04 -1.0894E-04 
        121      1.8209E-04 -8.2762E-05 
        201      4.6153E-05 -5.4630E-05 
        202      7.3756E-05 -1.4083E-04 
        203      5.2207E-05 -1.5893E-04 
        204      7.9001E-05 -2.1927E-04 
        205      6.6604E-05 -2.3122E-04 
        206      8.7272E-05 -2.8644E-04 
        207      8.3947E-05 -2.8736E-04 
        208      1.0011E-04 -3.3470E-04 
        209      1.0349E-04 -3.2304E-04 
        210      1.1582E-04 -3.5977E-04 
        211      1.2415E-04 -3.3525E-04 
        212      1.3248E-04 -3.5977E-04 
        213      1.4481E-04 -3.2304E-04 
        214      1.4819E-04 -3.3470E-04 
        215      1.6435E-04 -2.8736E-04 
        216      1.6102E-04 -2.8644E-04 
        217      1.8169E-04 -2.3122E-04 
        218      1.6929E-04 -2.1927E-04 
        219      1.9609E-04 -1.5893E-04 
        220      1.7454E-04 -1.4083E-04 
        221      2.0214E-04 -5.4630E-05 
        301      7.9415E-05 -8.0583E-05 
        302      6.2347E-05 -1.1899E-04 
        303      7.9216E-05 -1.7892E-04 
        304      6.9249E-05 -2.0059E-04 
        305      8.7060E-05 -2.5039E-04 
        306      8.1371E-05 -2.6782E-04 
        307      9.7330E-05 -3.0714E-04 
        308      9.7159E-05 -3.1555E-04 
        309      1.1006E-04 -3.4343E-04 
        310      1.1494E-04 -3.4026E-04 
        311      1.2415E-04 -3.5588E-04 
        312      1.3335E-04 -3.4026E-04 
        313      1.3823E-04 -3.4343E-04 
        314      1.5113E-04 -3.1555E-04 
        315      1.5096E-04 -3.0714E-04 
        316      1.6692E-04 -2.6782E-04 
        317      1.6123E-04 -2.5039E-04 
        318      1.7904E-04 -2.0059E-04 
        319      1.6908E-04 -1.7892E-04 
        320      1.8595E-04 -1.1899E-04 
        321      1.6888E-04 -8.0583E-05 
        401      7.1447E-05 -7.3955E-05 
        402      8.6223E-05 -1.2858E-04 
        403      7.4080E-05 -1.6868E-04 
        404      8.7793E-05 -2.1098E-04 
        405      8.3153E-05 -2.4097E-04 
        406      9.5438E-05 -2.7747E-04 
        407      9.4823E-05 -2.9852E-04 
        408      1.0589E-04 -3.2480E-04 
        409      1.0887E-04 -3.3516E-04 
        410      1.1789E-04 -3.4938E-04 
        411      1.2415E-04 -3.4770E-04 
        412      1.3040E-04 -3.4938E-04 
        413      1.3942E-04 -3.3516E-04 
        414      1.4241E-04 -3.2480E-04 
        415      1.5347E-04 -2.9852E-04 
        416      1.5285E-04 -2.7747E-04 
        417      1.6514E-04 -2.4097E-04 
        418      1.6050E-04 -2.1098E-04 
        419      1.7421E-04 -1.6868E-04 
        420      1.6207E-04 -1.2858E-04 
        421      1.7685E-04 -7.3955E-05 
        501      9.1000E-05 -8.0818E-05 
        502      8.4072E-05 -1.2493E-04 
        503      9.1447E-05 -1.7162E-04 
        504      8.6449E-05 -2.0825E-04 
        505      9.6354E-05 -2.4421E-04 
        506      9.4945E-05 -2.7480E-04 
        507      1.0398E-04 -3.0176E-04 
        508      1.0572E-04 -3.2235E-04 
        509      1.1359E-04 -3.3829E-04 
        510      1.1785E-04 -3.4709E-04 
        511      1.2415E-04 -3.5077E-04 
        512      1.3044E-04 -3.4709E-04 
        513      1.3471E-04 -3.3829E-04 
        514      1.4257E-04 -3.2235E-04 
        515      1.4431E-04 -3.0176E-04 
        516      1.5335E-04 -2.7480E-04 
        517      1.5194E-04 -2.4421E-04 
        518      1.6184E-04 -2.0825E-04 
        519      1.5684E-04 -1.7162E-04 
        520      1.6422E-04 -1.2493E-04 
        521      1.5729E-04 -8.0818E-05 
        601      9.1854E-05 -8.2660E-05 
        602      9.8412E-05 -1.2548E-04 
        603      9.3246E-05 -1.7107E-04 
        604      9.8715E-05 -2.0849E-04 
        605      9.7723E-05 -2.4461E-04 
        606      1.0426E-04 -2.7471E-04 
        607      1.0516E-04 -3.0248E-04 
        608      1.1151E-04 -3.2219E-04 
        609      1.1427E-04 -3.3911E-04 
        610      1.1981E-04 -3.4691E-04 
        611      1.2415E-04 -3.5163E-04 
        612      1.2848E-04 -3.4691E-04 
        613      1.3402E-04 -3.3911E-04 
        614      1.3678E-04 -3.2219E-04 
        615      1.4313E-04 -3.0248E-04 
        616      1.4403E-04 -2.7471E-04 
        617      1.5057E-04 -2.4461E-04 
        618      1.4958E-04 -2.0849E-04 
        619      1.5505E-04 -1.7107E-04 
        620      1.4988E-04 -1.2548E-04 
        621      1.5644E-04 -8.2660E-05 
        701      1.0364E-04 -8.3402E-05 
        702      1.0203E-04 -1.2718E-04 
        703      1.0438E-04 -1.6930E-04 
        704      1.0233E-04 -2.1015E-04 
        705      1.0662E-04 -2.4318E-04 
        706      1.0709E-04 -2.7660E-04 
        707      1.1153E-04 -3.0094E-04 
        708      1.1333E-04 -3.2428E-04 
        709      1.1758E-04 -3.3749E-04 
        710      1.2044E-04 -3.4910E-04 
        711      1.2415E-04 -3.4998E-04 
        712      1.2785E-04 -3.4910E-04 
        713      1.3071E-04 -3.3749E-04 
        714      1.3496E-04 -3.2428E-04 
        715      1.3676E-04 -3.0094E-04 
        716      1.4121E-04 -2.7660E-04 
        717      1.4167E-04 -2.4318E-04 
        718      1.4596E-04 -2.1015E-04 
        719      1.4391E-04 -1.6930E-04 
        720      1.4626E-04 -1.2718E-04 
        721      1.4465E-04 -8.3402E-05 
        801      1.0895E-04 -8.6717E-05 
        802      1.1147E-04 -1.2579E-04 
        803      1.0971E-04 -1.7097E-04 
        804      1.1100E-04 -2.0819E-04 
        805      1.1099E-04 -2.4541E-04 
        806      1.1374E-04 -2.7462E-04 
        807      1.1470E-04 -3.0330E-04 
        808      1.1755E-04 -3.2227E-04 
        809      1.1924E-04 -3.3993E-04 
        810      1.2189E-04 -3.4706E-04 
        811      1.2415E-04 -3.5245E-04 
        812      1.2641E-04 -3.4706E-04 
        813      1.2905E-04 -3.3993E-04 
        814      1.3075E-04 -3.2227E-04 
        815      1.3359E-04 -3.0330E-04 
        816      1.3455E-04 -2.7462E-04 
        817      1.3730E-04 -2.4541E-04 
        818      1.3730E-04 -2.0819E-04 
        819      1.3859E-04 -1.7097E-04 
        820      1.3682E-04 -1.2579E-04 
        821      1.3935E-04 -8.6717E-05 
        901      1.1728E-04 -8.6274E-05 
        902      1.1768E-04 -1.2804E-04 
        903      1.1785E-04 -1.6894E-04 
        904      1.1683E-04 -2.1005E-04 
        905      1.1784E-04 -2.4358E-04 
        906      1.1822E-04 -2.7672E-04 
        907      1.1964E-04 -3.0142E-04 
        908      1.2039E-04 -3.2447E-04 
        909      1.2182E-04 -3.3801E-04 
        910      1.2286E-04 -3.4929E-04 
        911      1.2415E-04 -3.5052E-04 
        912      1.2543E-04 -3.4929E-04 
        913      1.2647E-04 -3.3801E-04 
        914      1.2790E-04 -3.2447E-04 
        915      1.2865E-04 -3.0142E-04 
        916      1.3007E-04 -2.7672E-04 
        917      1.3045E-04 -2.4358E-04 
        918      1.3146E-04 -2.1005E-04 
        919      1.3045E-04 -1.6894E-04 
        920      1.3061E-04 -1.2804E-04 
        921      1.3101E-04 -8.6274E-05 
       1001      1.2427E-04 -8.8841E-05 
       1002      1.2513E-04 -1.2696E-04 
       1003      1.2453E-04 -1.7038E-04 
       1004      1.2389E-04 -2.0840E-04 
       1005      1.2349E-04 -2.4525E-04 
       1006      1.2374E-04 -2.7516E-04 
       1007      1.2368E-04 -3.0316E-04 
       1008      1.2392E-04 -3.2289E-04 
       1009      1.2392E-04 -3.3979E-04 
       1010      1.2407E-04 -3.4769E-04 
       1011      1.2415E-04 -3.5231E-04 
       1012      1.2422E-04 -3.4769E-04 
       1013      1.2437E-04 -3.3979E-04 
       1014      1.2438E-04 -3.2289E-04 
       1015      1.2461E-04 -3.0316E-04 
       1016      1.2455E-04 -2.7516E-04 
       1017      1.2481E-04 -2.4525E-04 
       1018      1.2440E-04 -2.0840E-04 
       1019      1.2376E-04 -1.7038E-04 
       1020      1.2316E-04 -1.2696E-04 
       1021      1.2402E-04 -8.8841E-05 
       1101      1.3143E-04 -8.8556E-05 
       1102      1.3220E-04 -1.2855E-04 
       1103      1.3155E-04 -1.6913E-04 
       1104      1.3048E-04 -2.0951E-04 
       1105      1.2957E-04 -2.4405E-04 
       1106      1.2886E-04 -2.7644E-04 
       1107      1.2807E-04 -3.0195E-04 
       1108      1.2717E-04 -3.2419E-04 
       1109      1.2621E-04 -3.3855E-04 
       1110      1.2519E-04 -3.4899E-04 
       1111      1.2415E-04 -3.5107E-04 
       1112      1.2311E-04 -3.4899E-04 
       1113      1.2208E-04 -3.3855E-04 
       1114      1.2113E-04 -3.2419E-04 
       1115      1.2022E-04 -3.0195E-04 
       1116      1.1943E-04 -2.7644E-04 
       1117      1.1872E-04 -2.4405E-04 
       1118      1.1781E-04 -2.0951E-04 
       1119      1.1674E-04 -1.6913E-04 
       1120      1.1609E-04 -1.2855E-04 
       1121      1.1686E-04 -8.8556E-05 
       1201      1.3886E-04 -9.0093E-05 
       1202      1.3909E-04 -1.2810E-04 
       1203      1.3862E-04 -1.6994E-04 
       1204      1.3702E-04 -2.0855E-04 
       1205      1.3564E-04 -2.4490E-04 
       1206      1.3405E-04 -2.7556E-04 
       1207      1.3241E-04 -3.0282E-04 
       1208      1.3048E-04 -3.2328E-04 
       1209      1.2847E-04 -3.3942E-04 
       1210      1.2632E-04 -3.4807E-04 
       1211      1.2415E-04 -3.5194E-04 
       1212      1.2197E-04 -3.4807E-04 
       1213      1.1982E-04 -3.3942E-04 
       1214      1.1782E-04 -3.2328E-04 
       1215      1.1588E-04 -3.0282E-04 
       1216      1.1425E-04 -2.7556E-04 
       1217      1.1265E-04 -2.4490E-04 
       1218      1.1127E-04 -2.0855E-04 
       1219      1.0968E-04 -1.6994E-04 
       1220      1.0920E-04 -1.2810E-04 
       1221      1.0944E-04 -9.0093E-05 
       1301      1.4582E-04 -9.0070E-05 
       1302      1.4637E-04 -1.2902E-04 
       1303      1.4538E-04 -1.6935E-04 
       1304      1.4379E-04 -2.0901E-04 
       1305      1.4156E-04 -2.4426E-04 
       1306      1.3938E-04 -2.7610E-04 
       1307      1.3669E-04 -3.0218E-04 
       1308      1.3386E-04 -3.2380E-04 
       1309      1.3070E-04 -3.3875E-04 
       1310      1.2748E-04 -3.4858E-04 
       1311      1.2415E-04 -3.5126E-04 
       1312      1.2081E-04 -3.4858E-04 
       1313      1.1759E-04 -3.3875E-04 
       1314      1.1443E-04 -3.2380E-04 
       1315      1.1160E-04 -3.0218E-04 
       1316      1.0892E-04 -2.7610E-04 
       1317      1.0673E-04 -2.4426E-04 
       1318      1.0450E-04 -2.0901E-04 
       1319      1.0291E-04 -1.6935E-04 
       1320      1.0192E-04 -1.2902E-04 
       1321      1.0247E-04 -9.0070E-05 
       1401      1.5330E-04 -9.0850E-05 
       1402      1.5327E-04 -1.2896E-04 
       1403      1.5252E-04 -1.6969E-04 
       1404      1.5029E-04 -2.0853E-04 
       1405      1.4775E-04 -2.4453E-04 
       1406      1.4456E-04 -2.7565E-04 
       1407      1.4113E-04 -3.0243E-04 
       1408      1.3716E-04 -3.2331E-04 
       1409      1.3302E-04 -3.3898E-04 
       1410      1.2861E-04 -3.4806E-04 
       1411      1.2415E-04 -3.5147E-04 
       1412      1.1968E-04 -3.4806E-04 
       1413      1.1528E-04 -3.3898E-04 
       1414      1.1113E-04 -3.2331E-04 
       1415      1.0716E-04 -3.0243E-04 
       1416      1.0373E-04 -2.7565E-04 
       1417      1.0054E-04 -2.4453E-04 
       1418      9.8000E-05 -2.0853E-04 
       1419      9.5772E-05 -1.6969E-04 
       1420      9.5018E-05 -1.2896E-04 
       1421      9.4989E-05 -9.0850E-05 
       1501      1.6041E-04 -9.0937E-05 
       1502      1.6062E-04 -1.2945E-04 
       1503      1.5939E-04 -1.6946E-04 
       1504      1.5712E-04 -2.0862E-04 
       1505      1.5377E-04 -2.4420E-04 
       1506      1.4998E-04 -2.7573E-04 
       1507      1.4546E-04 -3.0206E-04 
       1508      1.4059E-04 -3.2334E-04 
       1509      1.3527E-04 -3.3857E-04 
       1510      1.2978E-04 -3.4807E-04 
       1511      1.2415E-04 -3.5105E-04 
       1512      1.1851E-04 -3.4807E-04 
       1513      1.1302E-04 -3.3857E-04 
       1514      1.0770E-04 -3.2334E-04 
       1515      1.0283E-04 -3.0206E-04 
       1516      9.8314E-05 -2.7573E-04 
       1517      9.4525E-05 -2.4420E-04 
       1518      9.1175E-05 -2.0862E-04 
       1519      8.8905E-05 -1.6946E-04 
       1520      8.7675E-05 -1.2945E-04 
       1521      8.7885E-05 -9.0937E-05 
       1601      1.6792E-04 -9.1273E-05 
       1602      1.6774E-04 -1.2957E-04 
       1603      1.6660E-04 -1.6956E-04 
       1604      1.6379E-04 -2.0838E-04 
       1605      1.6005E-04 -2.4416E-04 
       1606      1.5529E-04 -2.7543E-04 
       1607      1.4996E-04 -3.0196E-04 
       1608      1.4396E-04 -3.2299E-04 
       1609      1.3762E-04 -3.3842E-04 
       1610      1.3094E-04 -3.4768E-04 
       1611      1.2415E-04 -3.5088E-04 
       1612      1.1735E-04 -3.4768E-04 
       1613      1.1068E-04 -3.3842E-04 
       1614      1.0433E-04 -3.2299E-04 
       1615      9.8332E-05 -3.0196E-04 
       1616      9.3003E-05 -2.7543E-04 
       1617      8.8246E-05 -2.4416E-04 
       1618      8.4507E-05 -2.0838E-04 
       1619      8.1688E-05 -1.6956E-04 
       1620      8.0556E-05 -1.2957E-04 
       1621      8.0367E-05 -9.1273E-05 
       1701      1.7525E-04 -9.1375E-05 
       1702      1.7519E-04 -1.2981E-04 
       1703      1.7372E-04 -1.6948E-04 
       1704      1.7074E-04 -2.0830E-04 
       1705      1.6625E-04 -2.4392E-04 
       1706      1.6080E-04 -2.7525E-04 
       1707      1.5441E-04 -3.0164E-04 
       1708      1.4745E-04 -3.2273E-04 
       1709      1.3993E-04 -3.3805E-04 
       1710      1.3213E-04 -3.4739E-04 
       1711      1.2415E-04 -3.5050E-04 
       1712      1.1616E-04 -3.4739E-04 
       1713      1.0836E-04 -3.3805E-04 
       1714      1.0084E-04 -3.2273E-04 
       1715      9.3882E-05 -3.0164E-04 
       1716      8.7494E-05 -2.7525E-04 
       1717      8.2042E-05 -2.4392E-04 
       1718      7.7548E-05 -2.0830E-04 
       1719      7.4576E-05 -1.6948E-04 
       1720      7.3098E-05 -1.2981E-04 
       1721      7.3041E-05 -9.1375E-05 
       1801      1.8286E-04 -9.1503E-05 
       1802      1.8258E-04 -1.2996E-04 
       1803      1.8114E-04 -1.6944E-04 
       1804      1.7769E-04 -2.0814E-04 
       1805      1.7268E-04 -2.4370E-04 
       1806      1.6628E-04 -2.7497E-04 
       1807      1.5900E-04 -3.0132E-04 
       1808      1.5092E-04 -3.2237E-04 
       1809      1.4232E-04 -3.3767E-04 
       1810      1.3332E-04 -3.4699E-04 
       1811      1.2415E-04 -3.5009E-04 
       1812      1.1497E-04 -3.4699E-04 
       1813      1.0597E-04 -3.3767E-04 
       1814      9.7376E-05 -3.2237E-04 
       1815      8.9288E-05 -3.0132E-04 
       1816      8.2013E-05 -2.7497E-04 
       1817      7.5612E-05 -2.4370E-04 
       1818      7.0603E-05 -2.0814E-04 
       1819      6.7157E-05 -1.6944E-04 
       1820      6.5713E-05 -1.2996E-04 
       1821      6.5436E-05 -9.1503E-05 
       1901      1.9036E-04 -9.1639E-05 
       1902      1.9023E-04 -1.3005E-04 
       1903      1.8860E-04 -1.6942E-04 
       1904      1.8492E-04 -2.0795E-04 
       1905      1.7912E-04 -2.4346E-04 
       1906      1.7193E-04 -2.7462E-04 
       1907      1.6360E-04 -3.0097E-04 
       1908      1.5449E-04 -3.2192E-04 
       1909      1.4471E-04 -3.3724E-04 
       1910      1.3454E-04 -3.4649E-04 
       1911      1.2415E-04 -3.4964E-04 
       1912      1.1375E-04 -3.4649E-04 
       1913      1.0358E-04 -3.3724E-04 
       1914      9.3804E-05 -3.2192E-04 
       1915      8.4695E-05 -3.0097E-04 
       1916      7.6359E-05 -2.7462E-04 
       1917      6.9172E-05 -2.4346E-04 
       1918      6.3374E-05 -2.0795E-04 
       1919      5.9692E-05 -1.6942E-04 
       1920      5.8059E-05 -1.3005E-04 
       1921      5.7935E-05 -9.1639E-05 
       2001      1.9802E-04 -9.1706E-05 
       2002      1.9788E-04 -1.3020E-04 
       2003      1.9642E-04 -1.6932E-04 
       2004      1.9223E-04 -2.0781E-04 
       2005      1.8578E-04 -2.4310E-04 
       2006      1.7761E-04 -2.7428E-04 
       2007      1.6833E-04 -3.0047E-04 
       2008      1.5807E-04 -3.2148E-04 
       2009      1.4717E-04 -3.3666E-04 
       2010      1.3577E-04 -3.4600E-04 
       2011      1.2415E-04 -3.4904E-04 
       2012      1.1253E-04 -3.4600E-04 
       2013      1.0113E-04 -3.3666E-04 
       2014      9.0219E-05 -3.2148E-04 
       2015      7.9967E-05 -3.0047E-04 
       2016      7.0682E-05 -2.7428E-04 
       2017      6.2516E-05 -2.4310E-04 
       2018      5.6057E-05 -2.0781E-04 
       2019      5.1873E-05 -1.6932E-04 
       2020      5.0410E-05 -1.3020E-04 
       2021      5.0269E-05 -9.1706E-05 

 MAXIMUM         2.4829E-04   0.000    
 AT NODE                21           1

 MINIMUM          0.000     -3.7933E-04
 AT NODE                 1          12
  
  
  
   THE FOLLOWING TABLE IS PRINTED FOR ALL NODES
  
       NODE FOOT-   RF1         RF2      
            NOTE
  
          1     -2.2352E-08  2.5000E+05 
         21       0.000      2.5000E+05 

 MAXIMUM          0.000      2.5000E+05
 AT NODE                 2          21

 MINIMUM        -2.2352E-08   0.000    
 AT NODE                 1           2


          THE ANALYSIS HAS BEEN COMPLETED



                              ANALYSIS COMPLETE



     JOB TIME SUMMARY
       USER TIME (SEC)      =  0.20000    
       SYSTEM TIME (SEC)    =  4.00000E-02
       TOTAL CPU TIME (SEC) =  0.24000    
       WALLCLOCK TIME (SEC) =          0
