 Abaqus/Standard 6.12-1                  DATE 04-Nov-2016 TIME 16:36:54
 SUMMARY OF JOB INFORMATION:
 STEP  INC ATT SEVERE EQUIL TOTAL  TOTAL      STEP       INC OF       DOF    IF
               DISCON ITERS ITERS  TIME/    TIME/LPF    TIME/LPF    MONITOR RIKS
               ITERS               FREQ
   1     1   1     0     1     1  0.00       2.22e-16   2.220e-16 
                          
 THE ANALYSIS HAS COMPLETED SUCCESSFULLY
